1
APtclcactv03162116352D 0   0.00000     0.00000     1
 
 61 63  0  0  0  0  0  0  0  0999 V2000
    6.2719   -0.4446    0.0000 O   0  0  0  0  0  0  0  0  0  0  0  0
    6.7619    0.4214    0.0000 C   0  0  0  0  0  0  0  0  0  0  0  0
    7.7619    0.4214    0.0000 O   0  0  0  0  0  0  0  0  0  0  0  0
    8.2719   -0.4446    0.0000 C   0  0  0  0  0  0  0  0  0  0  0  0
    9.2719   -0.4446    0.0000 C   0  0  0  0  0  0  0  0  0  0  0  0
    9.7619   -1.3106    0.0000 N   0  0  0  0  0  0  0  0  0  0  0  0
   10.7619   -1.3106    0.0000 C   0  0  0  0  0  0  0  0  0  0  0  0
   11.2719   -0.4446    0.0000 C   0  0  0  0  0  0  0  0  0  0  0  0
   12.2719   -0.4446    0.0000 C   0  0  0  0  0  0  0  0  0  0  0  0
   12.7619   -1.3106    0.0000 C   0  0  0  0  0  0  0  0  0  0  0  0
   13.7619   -1.3106    0.0000 O   0  0  0  0  0  0  0  0  0  0  0  0
   14.2719   -0.4446    0.0000 C   0  0  0  0  0  0  0  0  0  0  0  0
   12.2719   -2.1767    0.0000 C   0  0  0  0  0  0  0  0  0  0  0  0
   12.7619   -3.0427    0.0000 Cl  0  0  0  0  0  0  0  0  0  0  0  0
   11.2719   -2.1767    0.0000 C   0  0  0  0  0  0  0  0  0  0  0  0
    9.7619    0.4214    0.0000 O   0  0  0  0  0  0  0  0  0  0  0  0
    6.2719    1.2874    0.0000 C   0  0  0  0  0  0  0  0  0  0  0  0
    6.7619    2.1535    0.0000 C   0  0  0  0  0  0  0  0  0  0  0  0
    7.7619    2.1535    0.0000 C   0  0  0  0  0  0  0  0  0  0  0  0
    8.2719    3.0195    0.0000 C   0  0  0  0  0  0  0  0  0  0  0  0
    8.2719    1.2874    0.0000 C   0  0  0  0  0  0  0  0  0  0  0  0
    5.2719    1.2874    0.0000 N   0  0  0  0  0  0  0  0  0  0  0  0
    4.6783    2.0922    0.0000 C   0  0  0  0  0  0  0  0  0  0  0  0
    3.7321    1.7874    0.0000 C   0  0  0  0  0  0  0  0  0  0  0  0
    2.8660    2.2874    0.0000 C   0  0  0  0  0  0  0  0  0  0  0  0
    2.0000    1.7874    0.0000 C   0  0  0  0  0  0  0  0  0  0  0  0
    2.0000    0.7874    0.0000 C   0  0  0  0  0  0  0  0  0  0  0  0
    2.8660    0.2874    0.0000 C   0  0  0  0  0  0  0  0  0  0  0  0
    3.7321    0.7874    0.0000 C   0  0  0  0  0  0  0  0  0  0  0  0
    4.6783    0.4827    0.0000 C   0  0  0  0  0  0  0  0  0  0  0  0
    4.9889   -0.4678    0.0000 O   0  0  0  0  0  0  0  0  0  0  0  0
    4.9889    3.0427    0.0000 O   0  0  0  0  0  0  0  0  0  0  0  0
    7.6793   -0.6567    0.0000 H   0  0  0  0  0  0  0  0  0  0  0  0
    8.3695   -1.0552    0.0000 H   0  0  0  0  0  0  0  0  0  0  0  0
    9.4519   -1.8476    0.0000 H   0  0  0  0  0  0  0  0  0  0  0  0
   10.9519    0.0923    0.0000 H   0  0  0  0  0  0  0  0  0  0  0  0
   12.5719    0.0923    0.0000 H   0  0  0  0  0  0  0  0  0  0  0  0
   14.7988   -0.7546    0.0000 H   0  0  0  0  0  0  0  0  0  0  0  0
   14.5719    0.0923    0.0000 H   0  0  0  0  0  0  0  0  0  0  0  0
   13.7249   -0.1346    0.0000 H   0  0  0  0  0  0  0  0  0  0  0  0
   10.9519   -2.7136    0.0000 H   0  0  0  0  0  0  0  0  0  0  0  0
    5.9519    1.8244    0.0000 H   0  0  0  0  0  0  0  0  0  0  0  0
    6.8695    2.7640    0.0000 H   0  0  0  0  0  0  0  0  0  0  0  0
    6.1793    2.3655    0.0000 H   0  0  0  0  0  0  0  0  0  0  0  0
    7.4519    2.6904    0.0000 H   0  0  0  0  0  0  0  0  0  0  0  0
    8.7988    2.7095    0.0000 H   0  0  0  0  0  0  0  0  0  0  0  0
    8.5719    3.5564    0.0000 H   0  0  0  0  0  0  0  0  0  0  0  0
    7.7249    3.3295    0.0000 H   0  0  0  0  0  0  0  0  0  0  0  0
    7.7249    0.9774    0.0000 H   0  0  0  0  0  0  0  0  0  0  0  0
    8.5719    0.7505    0.0000 H   0  0  0  0  0  0  0  0  0  0  0  0
    8.7988    1.5974    0.0000 H   0  0  0  0  0  0  0  0  0  0  0  0
    3.7977    2.4040    0.0000 H   0  0  0  0  0  0  0  0  0  0  0  0
    3.2746    2.7624    0.0000 H   0  0  0  0  0  0  0  0  0  0  0  0
    2.4675    2.7624    0.0000 H   0  0  0  0  0  0  0  0  0  0  0  0
    1.7879    2.3700    0.0000 H   0  0  0  0  0  0  0  0  0  0  0  0
    1.3894    1.6798    0.0000 H   0  0  0  0  0  0  0  0  0  0  0  0
    1.3894    0.8951    0.0000 H   0  0  0  0  0  0  0  0  0  0  0  0
    1.7879    0.2048    0.0000 H   0  0  0  0  0  0  0  0  0  0  0  0
    2.4675   -0.1875    0.0000 H   0  0  0  0  0  0  0  0  0  0  0  0
    3.2746   -0.1875    0.0000 H   0  0  0  0  0  0  0  0  0  0  0  0
    3.7977    0.1709    0.0000 H   0  0  0  0  0  0  0  0  0  0  0  0
  1  2  2  0  0  0  0
  2  3  1  0  0  0  0
  3  4  1  0  0  0  0
  4  5  1  0  0  0  0
  5  6  1  0  0  0  0
  6  7  1  0  0  0  0
  7  8  2  0  0  0  0
  8  9  1  0  0  0  0
  9 10  2  0  0  0  0
 10 11  1  0  0  0  0
 11 12  1  0  0  0  0
 10 13  1  0  0  0  0
 13 14  1  0  0  0  0
 13 15  2  0  0  0  0
  7 15  1  0  0  0  0
  5 16  2  0  0  0  0
  2 17  1  0  0  0  0
 17 18  1  0  0  0  0
 18 19  1  0  0  0  0
 19 20  1  0  0  0  0
 19 21  1  0  0  0  0
 17 22  1  0  0  0  0
 22 23  1  0  0  0  0
 23 24  1  0  0  0  0
 24 27  1  0  0  0  0
 27 27  1  0  0  0  0
 27 27  1  0  0  0  0
 27 28  1  0  0  0  0
 28 29  1  0  0  0  0
 24 29  1  0  0  0  0
 29 30  1  0  0  0  0
 22 30  1  0  0  0  0
 30 31  2  0  0  0  0
 23 32  2  0  0  0  0
  4 33  1  0  0  0  0
  4 34  1  0  0  0  0
  6 35  1  0  0  0  0
  8 36  1  0  0  0  0
  9 37  1  0  0  0  0
 12 38  1  0  0  0  0
 12 39  1  0  0  0  0
 12 40  1  0  0  0  0
 15 41  1  0  0  0  0
 17 42  1  0  0  0  0
 18 43  1  0  0  0  0
 18 44  1  0  0  0  0
 19 45  1  0  0  0  0
 20 46  1  0  0  0  0
 20 47  1  0  0  0  0
 20 48  1  0  0  0  0
 21 49  1  0  0  0  0
 21 50  1  0  0  0  0
 21 51  1  0  0  0  0
 24 52  1  0  0  0  0
 27 53  1  0  0  0  0
 27 54  1  0  0  0  0
 27 55  1  0  0  0  0
 27 56  1  0  0  0  0
 27 57  1  0  0  0  0
 27 58  1  0  0  0  0
 28 59  1  0  0  0  0
 28 60  1  0  0  0  0
 29 61  1  0  0  0  0
M  END
> <UNIQUE_SMILES>
COC1=CC=C(NC(=O)COC(=O)C(CC(C)C)N2C(=O)C3CCCCC3C2=O)C=C1Cl

> <USER_SUPPLIED_SMILES>
O=C(OCC(NC1=CC=C(OC)C(Cl)=C1)=O)C(CC(C)C)N2C(C3CCCCC3C2=O)=O

$$$$
2
APtclcactv03162116352D 0   0.00000     0.00000     2
 
 49 50  0  0  0  0  0  0  0  0999 V2000
    4.5981    2.7306    0.0000 O   0  0  0  0  0  0  0  0  0  0  0  0
    5.4641    2.2306    0.0000 C   0  0  0  0  0  0  0  0  0  0  0  0
    5.4641    1.2306    0.0000 O   0  0  0  0  0  0  0  0  0  0  0  0
    4.5981    0.7306    0.0000 C   0  0  0  0  0  0  0  0  0  0  0  0
    4.5981   -0.2794    0.0000 C   0  0  0  0  0  0  0  0  0  0  0  0
    3.7321   -0.7694    0.0000 N   0  0  0  0  0  0  0  0  0  0  0  0
    3.7321   -1.7694    0.0000 C   0  0  0  0  0  0  0  0  0  0  0  0
    4.5981   -2.2794    0.0000 C   0  0  0  0  0  0  0  0  0  0  0  0
    4.5981   -3.2794    0.0000 C   0  0  0  0  0  0  0  0  0  0  0  0
    3.7321   -3.7694    0.0000 C   0  0  0  0  0  0  0  0  0  0  0  0
    3.7321   -4.7694    0.0000 O   0  0  0  0  0  0  0  0  0  0  0  0
    4.5981   -5.2794    0.0000 C   0  0  0  0  0  0  0  0  0  0  0  0
    2.8660   -3.2794    0.0000 C   0  0  0  0  0  0  0  0  0  0  0  0
    2.0000   -3.7694    0.0000 Cl  0  0  0  0  0  0  0  0  0  0  0  0
    2.8660   -2.2794    0.0000 C   0  0  0  0  0  0  0  0  0  0  0  0
    5.4641   -0.7694    0.0000 O   0  0  0  0  0  0  0  0  0  0  0  0
    6.3301    2.7306    0.0000 C   0  0  0  0  0  0  0  0  0  0  0  0
    7.1962    2.2306    0.0000 C   0  0  0  0  0  0  0  0  0  0  0  0
    7.1962    1.2306    0.0000 C   0  0  0  0  0  0  0  0  0  0  0  0
    8.0622    0.7306    0.0000 C   0  0  0  0  0  0  0  0  0  0  0  0
    6.3301    0.7306    0.0000 C   0  0  0  0  0  0  0  0  0  0  0  0
    6.3301    3.7306    0.0000 N   0  0  0  0  0  0  0  0  0  0  0  0
    7.1391    4.3184    0.0000 C   0  0  0  0  0  0  0  0  0  0  0  0
    6.8301    5.2794    0.0000 C   0  0  0  0  0  0  0  0  0  0  0  0
    5.8301    5.2794    0.0000 C   0  0  0  0  0  0  0  0  0  0  0  0
    5.5211    4.3184    0.0000 C   0  0  0  0  0  0  0  0  0  0  0  0
    4.5701    4.0093    0.0000 O   0  0  0  0  0  0  0  0  0  0  0  0
    8.0902    4.0093    0.0000 O   0  0  0  0  0  0  0  0  0  0  0  0
    4.3860    1.3132    0.0000 H   0  0  0  0  0  0  0  0  0  0  0  0
    3.9875    0.6229    0.0000 H   0  0  0  0  0  0  0  0  0  0  0  0
    3.1951   -0.4594    0.0000 H   0  0  0  0  0  0  0  0  0  0  0  0
    5.1350   -1.9594    0.0000 H   0  0  0  0  0  0  0  0  0  0  0  0
    5.1350   -3.5794    0.0000 H   0  0  0  0  0  0  0  0  0  0  0  0
    4.2881   -5.8064    0.0000 H   0  0  0  0  0  0  0  0  0  0  0  0
    5.1350   -5.5794    0.0000 H   0  0  0  0  0  0  0  0  0  0  0  0
    4.9081   -4.7327    0.0000 H   0  0  0  0  0  0  0  0  0  0  0  0
    2.3291   -1.9594    0.0000 H   0  0  0  0  0  0  0  0  0  0  0  0
    6.8671    3.0406    0.0000 H   0  0  0  0  0  0  0  0  0  0  0  0
    7.8067    2.1229    0.0000 H   0  0  0  0  0  0  0  0  0  0  0  0
    7.4082    2.8132    0.0000 H   0  0  0  0  0  0  0  0  0  0  0  0
    6.6592    1.5406    0.0000 H   0  0  0  0  0  0  0  0  0  0  0  0
    7.7522    0.1936    0.0000 H   0  0  0  0  0  0  0  0  0  0  0  0
    8.5991    0.4206    0.0000 H   0  0  0  0  0  0  0  0  0  0  0  0
    8.3722    1.2775    0.0000 H   0  0  0  0  0  0  0  0  0  0  0  0
    6.0201    1.2775    0.0000 H   0  0  0  0  0  0  0  0  0  0  0  0
    5.7932    0.4206    0.0000 H   0  0  0  0  0  0  0  0  0  0  0  0
    6.6401    0.1936    0.0000 H   0  0  0  0  0  0  0  0  0  0  0  0
    7.1946    5.7710    0.0000 H   0  0  0  0  0  0  0  0  0  0  0  0
    5.4657    5.7710    0.0000 H   0  0  0  0  0  0  0  0  0  0  0  0
  1  2  2  0  0  0  0
  2  3  1  0  0  0  0
  3  4  1  0  0  0  0
  4  5  1  0  0  0  0
  5  6  1  0  0  0  0
  6  7  1  0  0  0  0
  7  8  2  0  0  0  0
  8  9  1  0  0  0  0
  9 10  2  0  0  0  0
 10 11  1  0  0  0  0
 11 12  1  0  0  0  0
 10 13  1  0  0  0  0
 13 14  1  0  0  0  0
 13 15  2  0  0  0  0
  7 15  1  0  0  0  0
  5 16  2  0  0  0  0
  2 17  1  0  0  0  0
 17 18  1  0  0  0  0
 18 19  1  0  0  0  0
 19 20  1  0  0  0  0
 19 21  1  0  0  0  0
 17 22  1  0  0  0  0
 22 23  1  0  0  0  0
 23 24  1  0  0  0  0
 24 27  2  0  0  0  0
 27 27  1  0  0  0  0
 22 27  1  0  0  0  0
 27 27  2  0  0  0  0
 23 28  2  0  0  0  0
  4 29  1  0  0  0  0
  4 30  1  0  0  0  0
  6 31  1  0  0  0  0
  8 32  1  0  0  0  0
  9 33  1  0  0  0  0
 12 34  1  0  0  0  0
 12 35  1  0  0  0  0
 12 36  1  0  0  0  0
 15 37  1  0  0  0  0
 17 38  1  0  0  0  0
 18 39  1  0  0  0  0
 18 40  1  0  0  0  0
 19 41  1  0  0  0  0
 20 42  1  0  0  0  0
 20 43  1  0  0  0  0
 20 44  1  0  0  0  0
 21 45  1  0  0  0  0
 21 46  1  0  0  0  0
 21 47  1  0  0  0  0
 24 48  1  0  0  0  0
 27 49  1  0  0  0  0
M  END
> <UNIQUE_SMILES>
COC1=CC=C(NC(=O)COC(=O)C(CC(C)C)N2C(=O)C=CC2=O)C=C1Cl

> <USER_SUPPLIED_SMILES>
O=C(OCC(NC1=CC=C(OC)C(Cl)=C1)=O)C(CC(C)C)N2C(C=CC2=O)=O

$$$$
3
APtclcactv03162116352D 0   0.00000     0.00000     3
 
 51 52  0  0  0  0  0  0  0  0999 V2000
    4.5981    2.7306    0.0000 O   0  0  0  0  0  0  0  0  0  0  0  0
    5.4641    2.2306    0.0000 C   0  0  0  0  0  0  0  0  0  0  0  0
    5.4641    1.2306    0.0000 O   0  0  0  0  0  0  0  0  0  0  0  0
    4.5981    0.7306    0.0000 C   0  0  0  0  0  0  0  0  0  0  0  0
    4.5981   -0.2794    0.0000 C   0  0  0  0  0  0  0  0  0  0  0  0
    3.7321   -0.7694    0.0000 N   0  0  0  0  0  0  0  0  0  0  0  0
    3.7321   -1.7694    0.0000 C   0  0  0  0  0  0  0  0  0  0  0  0
    4.5981   -2.2794    0.0000 C   0  0  0  0  0  0  0  0  0  0  0  0
    4.5981   -3.2794    0.0000 C   0  0  0  0  0  0  0  0  0  0  0  0
    3.7321   -3.7694    0.0000 C   0  0  0  0  0  0  0  0  0  0  0  0
    3.7321   -4.7694    0.0000 O   0  0  0  0  0  0  0  0  0  0  0  0
    4.5981   -5.2794    0.0000 C   0  0  0  0  0  0  0  0  0  0  0  0
    2.8660   -3.2794    0.0000 C   0  0  0  0  0  0  0  0  0  0  0  0
    2.0000   -3.7694    0.0000 Cl  0  0  0  0  0  0  0  0  0  0  0  0
    2.8660   -2.2794    0.0000 C   0  0  0  0  0  0  0  0  0  0  0  0
    5.4641   -0.7694    0.0000 O   0  0  0  0  0  0  0  0  0  0  0  0
    6.3301    2.7306    0.0000 C   0  0  0  0  0  0  0  0  0  0  0  0
    7.1962    2.2306    0.0000 C   0  0  0  0  0  0  0  0  0  0  0  0
    7.1962    1.2306    0.0000 C   0  0  0  0  0  0  0  0  0  0  0  0
    8.0622    0.7306    0.0000 C   0  0  0  0  0  0  0  0  0  0  0  0
    6.3301    0.7306    0.0000 C   0  0  0  0  0  0  0  0  0  0  0  0
    6.3301    3.7306    0.0000 N   0  0  0  0  0  0  0  0  0  0  0  0
    7.1391    4.3184    0.0000 C   0  0  0  0  0  0  0  0  0  0  0  0
    6.8301    5.2794    0.0000 C   0  0  0  0  0  0  0  0  0  0  0  0
    5.8301    5.2794    0.0000 C   0  0  0  0  0  0  0  0  0  0  0  0
    5.5211    4.3184    0.0000 C   0  0  0  0  0  0  0  0  0  0  0  0
    4.5701    4.0093    0.0000 O   0  0  0  0  0  0  0  0  0  0  0  0
    8.0902    4.0093    0.0000 O   0  0  0  0  0  0  0  0  0  0  0  0
    4.3860    1.3132    0.0000 H   0  0  0  0  0  0  0  0  0  0  0  0
    3.9875    0.6229    0.0000 H   0  0  0  0  0  0  0  0  0  0  0  0
    3.1951   -0.4594    0.0000 H   0  0  0  0  0  0  0  0  0  0  0  0
    5.1350   -1.9594    0.0000 H   0  0  0  0  0  0  0  0  0  0  0  0
    5.1350   -3.5794    0.0000 H   0  0  0  0  0  0  0  0  0  0  0  0
    4.2881   -5.8064    0.0000 H   0  0  0  0  0  0  0  0  0  0  0  0
    5.1350   -5.5794    0.0000 H   0  0  0  0  0  0  0  0  0  0  0  0
    4.9081   -4.7327    0.0000 H   0  0  0  0  0  0  0  0  0  0  0  0
    2.3291   -1.9594    0.0000 H   0  0  0  0  0  0  0  0  0  0  0  0
    6.8671    3.0406    0.0000 H   0  0  0  0  0  0  0  0  0  0  0  0
    7.8067    2.1229    0.0000 H   0  0  0  0  0  0  0  0  0  0  0  0
    7.4082    2.8132    0.0000 H   0  0  0  0  0  0  0  0  0  0  0  0
    6.6592    1.5406    0.0000 H   0  0  0  0  0  0  0  0  0  0  0  0
    7.7522    0.1936    0.0000 H   0  0  0  0  0  0  0  0  0  0  0  0
    8.5991    0.4206    0.0000 H   0  0  0  0  0  0  0  0  0  0  0  0
    8.3722    1.2775    0.0000 H   0  0  0  0  0  0  0  0  0  0  0  0
    6.0201    1.2775    0.0000 H   0  0  0  0  0  0  0  0  0  0  0  0
    5.7932    0.4206    0.0000 H   0  0  0  0  0  0  0  0  0  0  0  0
    6.6401    0.1936    0.0000 H   0  0  0  0  0  0  0  0  0  0  0  0
    7.4366    5.3983    0.0000 H   0  0  0  0  0  0  0  0  0  0  0  0
    6.7653    5.8860    0.0000 H   0  0  0  0  0  0  0  0  0  0  0  0
    5.8949    5.8860    0.0000 H   0  0  0  0  0  0  0  0  0  0  0  0
    5.2237    5.3983    0.0000 H   0  0  0  0  0  0  0  0  0  0  0  0
  1  2  2  0  0  0  0
  2  3  1  0  0  0  0
  3  4  1  0  0  0  0
  4  5  1  0  0  0  0
  5  6  1  0  0  0  0
  6  7  1  0  0  0  0
  7  8  2  0  0  0  0
  8  9  1  0  0  0  0
  9 10  2  0  0  0  0
 10 11  1  0  0  0  0
 11 12  1  0  0  0  0
 10 13  1  0  0  0  0
 13 14  1  0  0  0  0
 13 15  2  0  0  0  0
  7 15  1  0  0  0  0
  5 16  2  0  0  0  0
  2 17  1  0  0  0  0
 17 18  1  0  0  0  0
 18 19  1  0  0  0  0
 19 20  1  0  0  0  0
 19 21  1  0  0  0  0
 17 22  1  0  0  0  0
 22 23  1  0  0  0  0
 23 24  1  0  0  0  0
 24 27  1  0  0  0  0
 27 27  1  0  0  0  0
 22 27  1  0  0  0  0
 27 27  2  0  0  0  0
 23 28  2  0  0  0  0
  4 29  1  0  0  0  0
  4 30  1  0  0  0  0
  6 31  1  0  0  0  0
  8 32  1  0  0  0  0
  9 33  1  0  0  0  0
 12 34  1  0  0  0  0
 12 35  1  0  0  0  0
 12 36  1  0  0  0  0
 15 37  1  0  0  0  0
 17 38  1  0  0  0  0
 18 39  1  0  0  0  0
 18 40  1  0  0  0  0
 19 41  1  0  0  0  0
 20 42  1  0  0  0  0
 20 43  1  0  0  0  0
 20 44  1  0  0  0  0
 21 45  1  0  0  0  0
 21 46  1  0  0  0  0
 21 47  1  0  0  0  0
 24 48  1  0  0  0  0
 24 49  1  0  0  0  0
 27 50  1  0  0  0  0
 27 51  1  0  0  0  0
M  END
> <UNIQUE_SMILES>
COC1=CC=C(NC(=O)COC(=O)C(CC(C)C)N2C(=O)CCC2=O)C=C1Cl

> <USER_SUPPLIED_SMILES>
O=C(OCC(NC1=CC=C(OC)C(Cl)=C1)=O)C(CC(C)C)N2C(CCC2=O)=O

$$$$
4
APtclcactv03162116352D 0   0.00000     0.00000     4
 
 52 53  0  0  0  0  0  0  0  0999 V2000
    4.5981    2.3271    0.0000 O   0  0  0  0  0  0  0  0  0  0  0  0
    5.4641    1.8271    0.0000 C   0  0  0  0  0  0  0  0  0  0  0  0
    5.4641    0.8271    0.0000 O   0  0  0  0  0  0  0  0  0  0  0  0
    4.5981    0.3271    0.0000 C   0  0  0  0  0  0  0  0  0  0  0  0
    4.5981   -0.6739    0.0000 C   0  0  0  0  0  0  0  0  0  0  0  0
    3.7321   -1.1739    0.0000 N   0  0  0  0  0  0  0  0  0  0  0  0
    3.7321   -2.1739    0.0000 C   0  0  0  0  0  0  0  0  0  0  0  0
    4.5981   -2.6739    0.0000 C   0  0  0  0  0  0  0  0  0  0  0  0
    4.5981   -3.6739    0.0000 C   0  0  0  0  0  0  0  0  0  0  0  0
    3.7321   -4.1739    0.0000 C   0  0  0  0  0  0  0  0  0  0  0  0
    3.7321   -5.1739    0.0000 O   0  0  0  0  0  0  0  0  0  0  0  0
    4.5981   -5.6739    0.0000 C   0  0  0  0  0  0  0  0  0  0  0  0
    2.8660   -3.6739    0.0000 C   0  0  0  0  0  0  0  0  0  0  0  0
    2.0000   -4.1739    0.0000 Cl  0  0  0  0  0  0  0  0  0  0  0  0
    2.8660   -2.6739    0.0000 C   0  0  0  0  0  0  0  0  0  0  0  0
    5.4641   -1.1739    0.0000 O   0  0  0  0  0  0  0  0  0  0  0  0
    6.3301    2.3271    0.0000 C   0  0  0  0  0  0  0  0  0  0  0  0
    7.1962    1.8271    0.0000 C   0  0  0  0  0  0  0  0  0  0  0  0
    7.1962    0.8271    0.0000 C   0  0  0  0  0  0  0  0  0  0  0  0
    8.0622    0.3271    0.0000 C   0  0  0  0  0  0  0  0  0  0  0  0
    6.3301    0.3271    0.0000 C   0  0  0  0  0  0  0  0  0  0  0  0
    6.3301    3.3271    0.0000 N   0  0  0  0  0  0  0  0  0  0  0  0
    7.1391    3.9139    0.0000 C   0  0  0  0  0  0  0  0  0  0  0  0
    6.8301    4.8649    0.0000 C   0  0  0  0  0  0  0  0  0  0  0  0
    5.8301    4.8649    0.0000 C   0  0  0  0  0  0  0  0  0  0  0  0
    5.2423    5.6739    0.0000 C   0  0  0  0  0  0  0  0  0  0  0  0
    5.5211    3.9139    0.0000 C   0  0  0  0  0  0  0  0  0  0  0  0
    4.5701    3.6048    0.0000 O   0  0  0  0  0  0  0  0  0  0  0  0
    8.0902    3.6048    0.0000 O   0  0  0  0  0  0  0  0  0  0  0  0
    4.3860    0.9087    0.0000 H   0  0  0  0  0  0  0  0  0  0  0  0
    3.9875    0.2184    0.0000 H   0  0  0  0  0  0  0  0  0  0  0  0
    3.1951   -0.8639    0.0000 H   0  0  0  0  0  0  0  0  0  0  0  0
    5.1350   -2.3639    0.0000 H   0  0  0  0  0  0  0  0  0  0  0  0
    5.1350   -3.9839    0.0000 H   0  0  0  0  0  0  0  0  0  0  0  0
    4.2881   -6.2109    0.0000 H   0  0  0  0  0  0  0  0  0  0  0  0
    5.1350   -5.9839    0.0000 H   0  0  0  0  0  0  0  0  0  0  0  0
    4.9081   -5.1370    0.0000 H   0  0  0  0  0  0  0  0  0  0  0  0
    2.3291   -2.3639    0.0000 H   0  0  0  0  0  0  0  0  0  0  0  0
    6.8671    2.6361    0.0000 H   0  0  0  0  0  0  0  0  0  0  0  0
    7.8067    1.7184    0.0000 H   0  0  0  0  0  0  0  0  0  0  0  0
    7.4082    2.4087    0.0000 H   0  0  0  0  0  0  0  0  0  0  0  0
    6.6592    1.1361    0.0000 H   0  0  0  0  0  0  0  0  0  0  0  0
    7.7522   -0.2109    0.0000 H   0  0  0  0  0  0  0  0  0  0  0  0
    8.5991    0.0161    0.0000 H   0  0  0  0  0  0  0  0  0  0  0  0
    8.3722    0.8630    0.0000 H   0  0  0  0  0  0  0  0  0  0  0  0
    6.0201    0.8630    0.0000 H   0  0  0  0  0  0  0  0  0  0  0  0
    5.7932    0.0161    0.0000 H   0  0  0  0  0  0  0  0  0  0  0  0
    6.6401   -0.2109    0.0000 H   0  0  0  0  0  0  0  0  0  0  0  0
    7.1946    5.3665    0.0000 H   0  0  0  0  0  0  0  0  0  0  0  0
    5.7439    6.0384    0.0000 H   0  0  0  0  0  0  0  0  0  0  0  0
    4.8779    6.1755    0.0000 H   0  0  0  0  0  0  0  0  0  0  0  0
    4.7408    5.3095    0.0000 H   0  0  0  0  0  0  0  0  0  0  0  0
  1  2  2  0  0  0  0
  2  3  1  0  0  0  0
  3  4  1  0  0  0  0
  4  5  1  0  0  0  0
  5  6  1  0  0  0  0
  6  7  1  0  0  0  0
  7  8  2  0  0  0  0
  8  9  1  0  0  0  0
  9 10  2  0  0  0  0
 10 11  1  0  0  0  0
 11 12  1  0  0  0  0
 10 13  1  0  0  0  0
 13 14  1  0  0  0  0
 13 15  2  0  0  0  0
  7 15  1  0  0  0  0
  5 16  2  0  0  0  0
  2 17  1  0  0  0  0
 17 18  1  0  0  0  0
 18 19  1  0  0  0  0
 19 20  1  0  0  0  0
 19 21  1  0  0  0  0
 17 22  1  0  0  0  0
 22 23  1  0  0  0  0
 23 24  1  0  0  0  0
 24 27  2  0  0  0  0
 27 27  1  0  0  0  0
 27 27  1  0  0  0  0
 22 27  1  0  0  0  0
 27 28  2  0  0  0  0
 23 29  2  0  0  0  0
  4 30  1  0  0  0  0
  4 31  1  0  0  0  0
  6 32  1  0  0  0  0
  8 33  1  0  0  0  0
  9 34  1  0  0  0  0
 12 35  1  0  0  0  0
 12 36  1  0  0  0  0
 12 37  1  0  0  0  0
 15 38  1  0  0  0  0
 17 39  1  0  0  0  0
 18 40  1  0  0  0  0
 18 41  1  0  0  0  0
 19 42  1  0  0  0  0
 20 43  1  0  0  0  0
 20 44  1  0  0  0  0
 20 45  1  0  0  0  0
 21 46  1  0  0  0  0
 21 47  1  0  0  0  0
 21 48  1  0  0  0  0
 24 49  1  0  0  0  0
 27 50  1  0  0  0  0
 27 51  1  0  0  0  0
 27 52  1  0  0  0  0
M  END
> <UNIQUE_SMILES>
COC1=CC=C(NC(=O)COC(=O)C(CC(C)C)N2C(=O)C=C(C)C2=O)C=C1Cl

> <USER_SUPPLIED_SMILES>
O=C(OCC(NC1=CC=C(OC)C(Cl)=C1)=O)C(CC(C)C)N2C(C=C(C)C2=O)=O

$$$$
5
APtclcactv03162116352D 0   0.00000     0.00000     5
 
 49 50  0  0  0  0  0  0  0  0999 V2000
    4.5981    2.3271    0.0000 O   0  0  0  0  0  0  0  0  0  0  0  0
    5.4641    1.8271    0.0000 C   0  0  0  0  0  0  0  0  0  0  0  0
    5.4641    0.8271    0.0000 O   0  0  0  0  0  0  0  0  0  0  0  0
    4.5981    0.3271    0.0000 C   0  0  0  0  0  0  0  0  0  0  0  0
    4.5981   -0.6739    0.0000 C   0  0  0  0  0  0  0  0  0  0  0  0
    3.7321   -1.1739    0.0000 N   0  0  0  0  0  0  0  0  0  0  0  0
    3.7321   -2.1739    0.0000 C   0  0  0  0  0  0  0  0  0  0  0  0
    4.5981   -2.6739    0.0000 C   0  0  0  0  0  0  0  0  0  0  0  0
    4.5981   -3.6739    0.0000 C   0  0  0  0  0  0  0  0  0  0  0  0
    3.7321   -4.1739    0.0000 C   0  0  0  0  0  0  0  0  0  0  0  0
    3.7321   -5.1739    0.0000 O   0  0  0  0  0  0  0  0  0  0  0  0
    4.5981   -5.6739    0.0000 C   0  0  0  0  0  0  0  0  0  0  0  0
    2.8660   -3.6739    0.0000 C   0  0  0  0  0  0  0  0  0  0  0  0
    2.0000   -4.1739    0.0000 Cl  0  0  0  0  0  0  0  0  0  0  0  0
    2.8660   -2.6739    0.0000 C   0  0  0  0  0  0  0  0  0  0  0  0
    5.4641   -1.1739    0.0000 O   0  0  0  0  0  0  0  0  0  0  0  0
    6.3301    2.3271    0.0000 C   0  0  0  0  0  0  0  0  0  0  0  0
    7.1962    1.8271    0.0000 C   0  0  0  0  0  0  0  0  0  0  0  0
    7.1962    0.8271    0.0000 C   0  0  0  0  0  0  0  0  0  0  0  0
    8.0622    0.3271    0.0000 C   0  0  0  0  0  0  0  0  0  0  0  0
    6.3301    0.3271    0.0000 C   0  0  0  0  0  0  0  0  0  0  0  0
    6.3301    3.3271    0.0000 N   0  0  0  0  0  0  0  0  0  0  0  0
    7.1391    3.9139    0.0000 C   0  0  0  0  0  0  0  0  0  0  0  0
    6.8301    4.8649    0.0000 C   0  0  0  0  0  0  0  0  0  0  0  0
    7.4179    5.6739    0.0000 Cl  0  0  0  0  0  0  0  0  0  0  0  0
    5.8301    4.8649    0.0000 C   0  0  0  0  0  0  0  0  0  0  0  0
    5.2423    5.6739    0.0000 Cl  0  0  0  0  0  0  0  0  0  0  0  0
    5.5211    3.9139    0.0000 C   0  0  0  0  0  0  0  0  0  0  0  0
    4.5701    3.6048    0.0000 O   0  0  0  0  0  0  0  0  0  0  0  0
    8.0902    3.6048    0.0000 O   0  0  0  0  0  0  0  0  0  0  0  0
    4.3860    0.9087    0.0000 H   0  0  0  0  0  0  0  0  0  0  0  0
    3.9875    0.2184    0.0000 H   0  0  0  0  0  0  0  0  0  0  0  0
    3.1951   -0.8639    0.0000 H   0  0  0  0  0  0  0  0  0  0  0  0
    5.1350   -2.3639    0.0000 H   0  0  0  0  0  0  0  0  0  0  0  0
    5.1350   -3.9839    0.0000 H   0  0  0  0  0  0  0  0  0  0  0  0
    4.2881   -6.2109    0.0000 H   0  0  0  0  0  0  0  0  0  0  0  0
    5.1350   -5.9839    0.0000 H   0  0  0  0  0  0  0  0  0  0  0  0
    4.9081   -5.1370    0.0000 H   0  0  0  0  0  0  0  0  0  0  0  0
    2.3291   -2.3639    0.0000 H   0  0  0  0  0  0  0  0  0  0  0  0
    6.8671    2.6361    0.0000 H   0  0  0  0  0  0  0  0  0  0  0  0
    7.8067    1.7184    0.0000 H   0  0  0  0  0  0  0  0  0  0  0  0
    7.4082    2.4087    0.0000 H   0  0  0  0  0  0  0  0  0  0  0  0
    6.6592    1.1361    0.0000 H   0  0  0  0  0  0  0  0  0  0  0  0
    7.7522   -0.2109    0.0000 H   0  0  0  0  0  0  0  0  0  0  0  0
    8.5991    0.0161    0.0000 H   0  0  0  0  0  0  0  0  0  0  0  0
    8.3722    0.8630    0.0000 H   0  0  0  0  0  0  0  0  0  0  0  0
    6.0201    0.8630    0.0000 H   0  0  0  0  0  0  0  0  0  0  0  0
    5.7932    0.0161    0.0000 H   0  0  0  0  0  0  0  0  0  0  0  0
    6.6401   -0.2109    0.0000 H   0  0  0  0  0  0  0  0  0  0  0  0
  1  2  2  0  0  0  0
  2  3  1  0  0  0  0
  3  4  1  0  0  0  0
  4  5  1  0  0  0  0
  5  6  1  0  0  0  0
  6  7  1  0  0  0  0
  7  8  2  0  0  0  0
  8  9  1  0  0  0  0
  9 10  2  0  0  0  0
 10 11  1  0  0  0  0
 11 12  1  0  0  0  0
 10 13  1  0  0  0  0
 13 14  1  0  0  0  0
 13 15  2  0  0  0  0
  7 15  1  0  0  0  0
  5 16  2  0  0  0  0
  2 17  1  0  0  0  0
 17 18  1  0  0  0  0
 18 19  1  0  0  0  0
 19 20  1  0  0  0  0
 19 21  1  0  0  0  0
 17 22  1  0  0  0  0
 22 23  1  0  0  0  0
 23 24  1  0  0  0  0
 24 27  1  0  0  0  0
 24 27  2  0  0  0  0
 27 27  1  0  0  0  0
 27 28  1  0  0  0  0
 22 28  1  0  0  0  0
 28 29  2  0  0  0  0
 23 30  2  0  0  0  0
  4 31  1  0  0  0  0
  4 32  1  0  0  0  0
  6 33  1  0  0  0  0
  8 34  1  0  0  0  0
  9 35  1  0  0  0  0
 12 36  1  0  0  0  0
 12 37  1  0  0  0  0
 12 38  1  0  0  0  0
 15 39  1  0  0  0  0
 17 40  1  0  0  0  0
 18 41  1  0  0  0  0
 18 42  1  0  0  0  0
 19 43  1  0  0  0  0
 20 44  1  0  0  0  0
 20 45  1  0  0  0  0
 20 46  1  0  0  0  0
 21 47  1  0  0  0  0
 21 48  1  0  0  0  0
 21 49  1  0  0  0  0
M  END
> <UNIQUE_SMILES>
COC1=CC=C(NC(=O)COC(=O)C(CC(C)C)N2C(=O)C(=C(Cl)C2=O)Cl)C=C1Cl

> <USER_SUPPLIED_SMILES>
O=C(OCC(NC1=CC=C(OC)C(Cl)=C1)=O)C(CC(C)C)N2C(C(Cl)=C(Cl)C2=O)=O

$$$$
6
APtclcactv03162116352D 0   0.00000     0.00000     6
 
 60 63  0  0  0  0  0  0  0  0999 V2000
    7.7619    2.5865    0.0000 O   0  0  0  0  0  0  0  0  0  0  0  0
    6.7619    2.5865    0.0000 C   0  0  0  0  0  0  0  0  0  0  0  0
    6.2719    1.7204    0.0000 O   0  0  0  0  0  0  0  0  0  0  0  0
    6.7619    0.8544    0.0000 C   0  0  0  0  0  0  0  0  0  0  0  0
    6.2719   -0.0116    0.0000 C   0  0  0  0  0  0  0  0  0  0  0  0
    6.7619   -0.8776    0.0000 N   0  0  0  0  0  0  0  0  0  0  0  0
    6.2719   -1.7437    0.0000 C   0  0  0  0  0  0  0  0  0  0  0  0
    6.7619   -2.6097    0.0000 C   0  0  0  0  0  0  0  0  0  0  0  0
    6.2719   -3.4757    0.0000 C   0  0  0  0  0  0  0  0  0  0  0  0
    5.2719   -3.4757    0.0000 C   0  0  0  0  0  0  0  0  0  0  0  0
    4.7619   -4.3417    0.0000 O   0  0  0  0  0  0  0  0  0  0  0  0
    5.2719   -5.2078    0.0000 C   0  0  0  0  0  0  0  0  0  0  0  0
    4.7619   -2.6097    0.0000 C   0  0  0  0  0  0  0  0  0  0  0  0
    3.7619   -2.6097    0.0000 Cl  0  0  0  0  0  0  0  0  0  0  0  0
    5.2719   -1.7437    0.0000 C   0  0  0  0  0  0  0  0  0  0  0  0
    5.2719   -0.0116    0.0000 O   0  0  0  0  0  0  0  0  0  0  0  0
    6.2719    3.4527    0.0000 C   0  0  0  0  0  0  0  0  0  0  0  0
    6.7619    4.3185    0.0000 C   0  0  0  0  0  0  0  0  0  0  0  0
    7.7619    4.3185    0.0000 C   0  0  0  0  0  0  0  0  0  0  0  0
    8.2719    3.4527    0.0000 C   0  0  0  0  0  0  0  0  0  0  0  0
    9.2719    3.4527    0.0000 C   0  0  0  0  0  0  0  0  0  0  0  0
    9.7619    4.3185    0.0000 C   0  0  0  0  0  0  0  0  0  0  0  0
    9.2719    5.1846    0.0000 C   0  0  0  0  0  0  0  0  0  0  0  0
    8.2719    5.1846    0.0000 C   0  0  0  0  0  0  0  0  0  0  0  0
    5.2719    3.4527    0.0000 N   0  0  0  0  0  0  0  0  0  0  0  0
    4.6783    4.2772    0.0000 C   0  0  0  0  0  0  0  0  0  0  0  0
    3.7321    3.9527    0.0000 C   0  0  0  0  0  0  0  0  0  0  0  0
    3.7321    2.9527    0.0000 C   0  0  0  0  0  0  0  0  0  0  0  0
    2.8660    2.4527    0.0000 C   0  0  0  0  0  0  0  0  0  0  0  0
    2.0000    2.9527    0.0000 C   0  0  0  0  0  0  0  0  0  0  0  0
    2.0000    3.9527    0.0000 C   0  0  0  0  0  0  0  0  0  0  0  0
    2.8660    4.4527    0.0000 C   0  0  0  0  0  0  0  0  0  0  0  0
    4.6783    2.6478    0.0000 C   0  0  0  0  0  0  0  0  0  0  0  0
    4.9889    1.6972    0.0000 O   0  0  0  0  0  0  0  0  0  0  0  0
    4.9889    5.2078    0.0000 O   0  0  0  0  0  0  0  0  0  0  0  0
    7.2368    0.4559    0.0000 H   0  0  0  0  0  0  0  0  0  0  0  0
    7.2368    1.2730    0.0000 H   0  0  0  0  0  0  0  0  0  0  0  0
    7.3819   -0.8776    0.0000 H   0  0  0  0  0  0  0  0  0  0  0  0
    7.3819   -2.6097    0.0000 H   0  0  0  0  0  0  0  0  0  0  0  0
    6.5719   -4.0127    0.0000 H   0  0  0  0  0  0  0  0  0  0  0  0
    4.7249   -5.5178    0.0000 H   0  0  0  0  0  0  0  0  0  0  0  0
    5.5719   -5.7447    0.0000 H   0  0  0  0  0  0  0  0  0  0  0  0
    5.7988   -4.8978    0.0000 H   0  0  0  0  0  0  0  0  0  0  0  0
    4.9519   -1.2067    0.0000 H   0  0  0  0  0  0  0  0  0  0  0  0
    5.9519    2.9156    0.0000 H   0  0  0  0  0  0  0  0  0  0  0  0
    6.8695    4.9291    0.0000 H   0  0  0  0  0  0  0  0  0  0  0  0
    6.1793    4.5306    0.0000 H   0  0  0  0  0  0  0  0  0  0  0  0
    7.9519    2.9156    0.0000 H   0  0  0  0  0  0  0  0  0  0  0  0
    9.5719    2.9156    0.0000 H   0  0  0  0  0  0  0  0  0  0  0  0
   10.3819    4.3185    0.0000 H   0  0  0  0  0  0  0  0  0  0  0  0
    9.5719    5.7215    0.0000 H   0  0  0  0  0  0  0  0  0  0  0  0
    7.9519    5.7215    0.0000 H   0  0  0  0  0  0  0  0  0  0  0  0
    3.7977    4.5690    0.0000 H   0  0  0  0  0  0  0  0  0  0  0  0
    3.7977    2.3360    0.0000 H   0  0  0  0  0  0  0  0  0  0  0  0
    2.4675    1.9776    0.0000 H   0  0  0  0  0  0  0  0  0  0  0  0
    3.2746    1.9776    0.0000 H   0  0  0  0  0  0  0  0  0  0  0  0
    1.4631    2.6427    0.0000 H   0  0  0  0  0  0  0  0  0  0  0  0
    1.4631    4.2727    0.0000 H   0  0  0  0  0  0  0  0  0  0  0  0
    3.2746    4.9274    0.0000 H   0  0  0  0  0  0  0  0  0  0  0  0
    2.4675    4.9274    0.0000 H   0  0  0  0  0  0  0  0  0  0  0  0
  1  2  2  0  0  0  0
  2  3  1  0  0  0  0
  3  4  1  0  0  0  0
  4  5  1  0  0  0  0
  5  6  1  0  0  0  0
  6  7  1  0  0  0  0
  7  8  2  0  0  0  0
  8  9  1  0  0  0  0
  9 10  2  0  0  0  0
 10 11  1  0  0  0  0
 11 12  1  0  0  0  0
 10 13  1  0  0  0  0
 13 14  1  0  0  0  0
 13 15  2  0  0  0  0
  7 15  1  0  0  0  0
  5 16  2  0  0  0  0
  2 17  1  0  0  0  0
 17 18  1  0  0  0  0
 18 19  1  0  0  0  0
 19 20  2  0  0  0  0
 20 21  1  0  0  0  0
 21 22  2  0  0  0  0
 22 23  1  0  0  0  0
 23 24  2  0  0  0  0
 19 24  1  0  0  0  0
 17 27  1  0  0  0  0
 27 27  1  0  0  0  0
 27 27  1  0  0  0  0
 27 28  1  0  0  0  0
 28 29  1  0  0  0  0
 29 30  1  0  0  0  0
 30 31  2  0  0  0  0
 31 32  1  0  0  0  0
 27 32  1  0  0  0  0
 28 33  1  0  0  0  0
 27 33  1  0  0  0  0
 33 34  2  0  0  0  0
 27 35  2  0  0  0  0
  4 36  1  0  0  0  0
  4 37  1  0  0  0  0
  6 38  1  0  0  0  0
  8 39  1  0  0  0  0
  9 40  1  0  0  0  0
 12 41  1  0  0  0  0
 12 42  1  0  0  0  0
 12 43  1  0  0  0  0
 15 44  1  0  0  0  0
 17 45  1  0  0  0  0
 18 46  1  0  0  0  0
 18 47  1  0  0  0  0
 20 48  1  0  0  0  0
 21 49  1  0  0  0  0
 22 50  1  0  0  0  0
 23 51  1  0  0  0  0
 24 52  1  0  0  0  0
 27 53  1  0  0  0  0
 28 54  1  0  0  0  0
 29 55  1  0  0  0  0
 29 56  1  0  0  0  0
 30 57  1  0  0  0  0
 31 58  1  0  0  0  0
 32 59  1  0  0  0  0
 32 60  1  0  0  0  0
M  END
> <UNIQUE_SMILES>
COC1=CC=C(NC(=O)COC(=O)C(CC2=CC=CC=C2)N3C(=O)C4CC=CCC4C3=O)C=C1Cl

> <USER_SUPPLIED_SMILES>
O=C(OCC(NC1=CC=C(OC)C(Cl)=C1)=O)C(CC2=CC=CC=C2)N3C(C4C(CC=CC4)C3=O)=O

$$$$
7
APtclcactv03162116352D 0   0.00000     0.00000     7
 
 50 52  0  0  0  0  0  0  0  0999 V2000
    4.5981    2.7306    0.0000 O   0  0  0  0  0  0  0  0  0  0  0  0
    5.4641    2.2306    0.0000 C   0  0  0  0  0  0  0  0  0  0  0  0
    5.4641    1.2306    0.0000 O   0  0  0  0  0  0  0  0  0  0  0  0
    4.5981    0.7306    0.0000 C   0  0  0  0  0  0  0  0  0  0  0  0
    4.5981   -0.2794    0.0000 C   0  0  0  0  0  0  0  0  0  0  0  0
    3.7321   -0.7694    0.0000 N   0  0  0  0  0  0  0  0  0  0  0  0
    3.7321   -1.7694    0.0000 C   0  0  0  0  0  0  0  0  0  0  0  0
    4.5981   -2.2794    0.0000 C   0  0  0  0  0  0  0  0  0  0  0  0
    4.5981   -3.2794    0.0000 C   0  0  0  0  0  0  0  0  0  0  0  0
    3.7321   -3.7694    0.0000 C   0  0  0  0  0  0  0  0  0  0  0  0
    3.7321   -4.7694    0.0000 O   0  0  0  0  0  0  0  0  0  0  0  0
    4.5981   -5.2794    0.0000 C   0  0  0  0  0  0  0  0  0  0  0  0
    2.8660   -3.2794    0.0000 C   0  0  0  0  0  0  0  0  0  0  0  0
    2.0000   -3.7694    0.0000 Cl  0  0  0  0  0  0  0  0  0  0  0  0
    2.8660   -2.2794    0.0000 C   0  0  0  0  0  0  0  0  0  0  0  0
    5.4641   -0.7694    0.0000 O   0  0  0  0  0  0  0  0  0  0  0  0
    6.3301    2.7306    0.0000 C   0  0  0  0  0  0  0  0  0  0  0  0
    7.1962    2.2306    0.0000 C   0  0  0  0  0  0  0  0  0  0  0  0
    7.1962    1.2306    0.0000 C   0  0  0  0  0  0  0  0  0  0  0  0
    8.0622    0.7306    0.0000 C   0  0  0  0  0  0  0  0  0  0  0  0
    8.0622   -0.2794    0.0000 C   0  0  0  0  0  0  0  0  0  0  0  0
    7.1962   -0.7694    0.0000 C   0  0  0  0  0  0  0  0  0  0  0  0
    6.3301   -0.2794    0.0000 C   0  0  0  0  0  0  0  0  0  0  0  0
    6.3301    0.7306    0.0000 C   0  0  0  0  0  0  0  0  0  0  0  0
    6.3301    3.7306    0.0000 N   0  0  0  0  0  0  0  0  0  0  0  0
    7.1391    4.3184    0.0000 C   0  0  0  0  0  0  0  0  0  0  0  0
    6.8301    5.2794    0.0000 C   0  0  0  0  0  0  0  0  0  0  0  0
    5.8301    5.2794    0.0000 C   0  0  0  0  0  0  0  0  0  0  0  0
    5.5211    4.3184    0.0000 C   0  0  0  0  0  0  0  0  0  0  0  0
    4.5701    4.0093    0.0000 O   0  0  0  0  0  0  0  0  0  0  0  0
    8.0902    4.0093    0.0000 O   0  0  0  0  0  0  0  0  0  0  0  0
    4.3860    1.3132    0.0000 H   0  0  0  0  0  0  0  0  0  0  0  0
    3.9875    0.6229    0.0000 H   0  0  0  0  0  0  0  0  0  0  0  0
    3.1951   -0.4594    0.0000 H   0  0  0  0  0  0  0  0  0  0  0  0
    5.1350   -1.9594    0.0000 H   0  0  0  0  0  0  0  0  0  0  0  0
    5.1350   -3.5794    0.0000 H   0  0  0  0  0  0  0  0  0  0  0  0
    4.2881   -5.8064    0.0000 H   0  0  0  0  0  0  0  0  0  0  0  0
    5.1350   -5.5794    0.0000 H   0  0  0  0  0  0  0  0  0  0  0  0
    4.9081   -4.7327    0.0000 H   0  0  0  0  0  0  0  0  0  0  0  0
    2.3291   -1.9594    0.0000 H   0  0  0  0  0  0  0  0  0  0  0  0
    6.8671    3.0406    0.0000 H   0  0  0  0  0  0  0  0  0  0  0  0
    7.8067    2.1229    0.0000 H   0  0  0  0  0  0  0  0  0  0  0  0
    7.4082    2.8132    0.0000 H   0  0  0  0  0  0  0  0  0  0  0  0
    8.5991    1.0406    0.0000 H   0  0  0  0  0  0  0  0  0  0  0  0
    8.5991   -0.5794    0.0000 H   0  0  0  0  0  0  0  0  0  0  0  0
    7.1962   -1.3894    0.0000 H   0  0  0  0  0  0  0  0  0  0  0  0
    5.7932   -0.5794    0.0000 H   0  0  0  0  0  0  0  0  0  0  0  0
    5.7932    1.0406    0.0000 H   0  0  0  0  0  0  0  0  0  0  0  0
    7.1946    5.7710    0.0000 H   0  0  0  0  0  0  0  0  0  0  0  0
    5.4657    5.7710    0.0000 H   0  0  0  0  0  0  0  0  0  0  0  0
  1  2  2  0  0  0  0
  2  3  1  0  0  0  0
  3  4  1  0  0  0  0
  4  5  1  0  0  0  0
  5  6  1  0  0  0  0
  6  7  1  0  0  0  0
  7  8  2  0  0  0  0
  8  9  1  0  0  0  0
  9 10  2  0  0  0  0
 10 11  1  0  0  0  0
 11 12  1  0  0  0  0
 10 13  1  0  0  0  0
 13 14  1  0  0  0  0
 13 15  2  0  0  0  0
  7 15  1  0  0  0  0
  5 16  2  0  0  0  0
  2 17  1  0  0  0  0
 17 18  1  0  0  0  0
 18 19  1  0  0  0  0
 19 20  2  0  0  0  0
 20 21  1  0  0  0  0
 21 22  2  0  0  0  0
 22 23  1  0  0  0  0
 23 24  2  0  0  0  0
 19 24  1  0  0  0  0
 17 27  1  0  0  0  0
 27 27  1  0  0  0  0
 27 27  1  0  0  0  0
 27 28  2  0  0  0  0
 28 29  1  0  0  0  0
 27 29  1  0  0  0  0
 29 30  2  0  0  0  0
 27 31  2  0  0  0  0
  4 32  1  0  0  0  0
  4 33  1  0  0  0  0
  6 34  1  0  0  0  0
  8 35  1  0  0  0  0
  9 36  1  0  0  0  0
 12 37  1  0  0  0  0
 12 38  1  0  0  0  0
 12 39  1  0  0  0  0
 15 40  1  0  0  0  0
 17 41  1  0  0  0  0
 18 42  1  0  0  0  0
 18 43  1  0  0  0  0
 20 44  1  0  0  0  0
 21 45  1  0  0  0  0
 22 46  1  0  0  0  0
 23 47  1  0  0  0  0
 24 48  1  0  0  0  0
 27 49  1  0  0  0  0
 28 50  1  0  0  0  0
M  END
> <UNIQUE_SMILES>
COC1=CC=C(NC(=O)COC(=O)C(CC2=CC=CC=C2)N3C(=O)C=CC3=O)C=C1Cl

> <USER_SUPPLIED_SMILES>
O=C(OCC(NC1=CC=C(OC)C(Cl)=C1)=O)C(CC2=CC=CC=C2)N3C(C=CC3=O)=O

$$$$
8
APtclcactv03162116352D 0   0.00000     0.00000     8
 
 59 61  0  0  0  0  0  0  0  0999 V2000
    6.2719   -0.4446    0.0000 O   0  0  0  0  0  0  0  0  0  0  0  0
    6.7619    0.4214    0.0000 C   0  0  0  0  0  0  0  0  0  0  0  0
    7.7619    0.4214    0.0000 O   0  0  0  0  0  0  0  0  0  0  0  0
    8.2719   -0.4446    0.0000 C   0  0  0  0  0  0  0  0  0  0  0  0
    9.2719   -0.4446    0.0000 C   0  0  0  0  0  0  0  0  0  0  0  0
    9.7619   -1.3106    0.0000 N   0  0  0  0  0  0  0  0  0  0  0  0
   10.7619   -1.3106    0.0000 C   0  0  0  0  0  0  0  0  0  0  0  0
   11.2719   -0.4446    0.0000 C   0  0  0  0  0  0  0  0  0  0  0  0
   12.2719   -0.4446    0.0000 C   0  0  0  0  0  0  0  0  0  0  0  0
   12.7619   -1.3106    0.0000 C   0  0  0  0  0  0  0  0  0  0  0  0
   13.7619   -1.3106    0.0000 O   0  0  0  0  0  0  0  0  0  0  0  0
   14.2719   -0.4446    0.0000 C   0  0  0  0  0  0  0  0  0  0  0  0
   12.2719   -2.1767    0.0000 C   0  0  0  0  0  0  0  0  0  0  0  0
   12.7619   -3.0427    0.0000 Cl  0  0  0  0  0  0  0  0  0  0  0  0
   11.2719   -2.1767    0.0000 C   0  0  0  0  0  0  0  0  0  0  0  0
    9.7619    0.4214    0.0000 O   0  0  0  0  0  0  0  0  0  0  0  0
    6.2719    1.2874    0.0000 C   0  0  0  0  0  0  0  0  0  0  0  0
    6.7619    2.1535    0.0000 C   0  0  0  0  0  0  0  0  0  0  0  0
    7.7619    2.1535    0.0000 C   0  0  0  0  0  0  0  0  0  0  0  0
    8.2719    3.0195    0.0000 C   0  0  0  0  0  0  0  0  0  0  0  0
    8.2719    1.2874    0.0000 C   0  0  0  0  0  0  0  0  0  0  0  0
    5.2719    1.2874    0.0000 N   0  0  0  0  0  0  0  0  0  0  0  0
    4.6783    2.0922    0.0000 C   0  0  0  0  0  0  0  0  0  0  0  0
    3.7321    1.7874    0.0000 C   0  0  0  0  0  0  0  0  0  0  0  0
    2.8660    2.2874    0.0000 C   0  0  0  0  0  0  0  0  0  0  0  0
    2.0000    1.7874    0.0000 C   0  0  0  0  0  0  0  0  0  0  0  0
    2.0000    0.7874    0.0000 C   0  0  0  0  0  0  0  0  0  0  0  0
    2.8660    0.2874    0.0000 C   0  0  0  0  0  0  0  0  0  0  0  0
    3.7321    0.7874    0.0000 C   0  0  0  0  0  0  0  0  0  0  0  0
    4.6783    0.4827    0.0000 C   0  0  0  0  0  0  0  0  0  0  0  0
    4.9889   -0.4678    0.0000 O   0  0  0  0  0  0  0  0  0  0  0  0
    4.9889    3.0427    0.0000 O   0  0  0  0  0  0  0  0  0  0  0  0
    7.6793   -0.6567    0.0000 H   0  0  0  0  0  0  0  0  0  0  0  0
    8.3695   -1.0552    0.0000 H   0  0  0  0  0  0  0  0  0  0  0  0
    9.4519   -1.8476    0.0000 H   0  0  0  0  0  0  0  0  0  0  0  0
   10.9519    0.0923    0.0000 H   0  0  0  0  0  0  0  0  0  0  0  0
   12.5719    0.0923    0.0000 H   0  0  0  0  0  0  0  0  0  0  0  0
   14.7988   -0.7546    0.0000 H   0  0  0  0  0  0  0  0  0  0  0  0
   14.5719    0.0923    0.0000 H   0  0  0  0  0  0  0  0  0  0  0  0
   13.7249   -0.1346    0.0000 H   0  0  0  0  0  0  0  0  0  0  0  0
   10.9519   -2.7136    0.0000 H   0  0  0  0  0  0  0  0  0  0  0  0
    5.9519    1.8244    0.0000 H   0  0  0  0  0  0  0  0  0  0  0  0
    6.8695    2.7640    0.0000 H   0  0  0  0  0  0  0  0  0  0  0  0
    6.1793    2.3655    0.0000 H   0  0  0  0  0  0  0  0  0  0  0  0
    7.4519    2.6904    0.0000 H   0  0  0  0  0  0  0  0  0  0  0  0
    8.7988    2.7095    0.0000 H   0  0  0  0  0  0  0  0  0  0  0  0
    8.5719    3.5564    0.0000 H   0  0  0  0  0  0  0  0  0  0  0  0
    7.7249    3.3295    0.0000 H   0  0  0  0  0  0  0  0  0  0  0  0
    7.7249    0.9774    0.0000 H   0  0  0  0  0  0  0  0  0  0  0  0
    8.5719    0.7505    0.0000 H   0  0  0  0  0  0  0  0  0  0  0  0
    8.7988    1.5974    0.0000 H   0  0  0  0  0  0  0  0  0  0  0  0
    3.7977    2.4040    0.0000 H   0  0  0  0  0  0  0  0  0  0  0  0
    3.2746    2.7624    0.0000 H   0  0  0  0  0  0  0  0  0  0  0  0
    2.4675    2.7624    0.0000 H   0  0  0  0  0  0  0  0  0  0  0  0
    1.4631    2.0974    0.0000 H   0  0  0  0  0  0  0  0  0  0  0  0
    1.4631    0.4774    0.0000 H   0  0  0  0  0  0  0  0  0  0  0  0
    2.4675   -0.1875    0.0000 H   0  0  0  0  0  0  0  0  0  0  0  0
    3.2746   -0.1875    0.0000 H   0  0  0  0  0  0  0  0  0  0  0  0
    3.7977    0.1709    0.0000 H   0  0  0  0  0  0  0  0  0  0  0  0
  1  2  2  0  0  0  0
  2  3  1  0  0  0  0
  3  4  1  0  0  0  0
  4  5  1  0  0  0  0
  5  6  1  0  0  0  0
  6  7  1  0  0  0  0
  7  8  2  0  0  0  0
  8  9  1  0  0  0  0
  9 10  2  0  0  0  0
 10 11  1  0  0  0  0
 11 12  1  0  0  0  0
 10 13  1  0  0  0  0
 13 14  1  0  0  0  0
 13 15  2  0  0  0  0
  7 15  1  0  0  0  0
  5 16  2  0  0  0  0
  2 17  1  0  0  0  0
 17 18  1  0  0  0  0
 18 19  1  0  0  0  0
 19 20  1  0  0  0  0
 19 21  1  0  0  0  0
 17 22  1  0  0  0  0
 22 23  1  0  0  0  0
 23 24  1  0  0  0  0
 24 27  1  0  0  0  0
 27 27  1  0  0  0  0
 27 27  2  0  0  0  0
 27 28  1  0  0  0  0
 28 29  1  0  0  0  0
 24 29  1  0  0  0  0
 29 30  1  0  0  0  0
 22 30  1  0  0  0  0
 30 31  2  0  0  0  0
 23 32  2  0  0  0  0
  4 33  1  0  0  0  0
  4 34  1  0  0  0  0
  6 35  1  0  0  0  0
  8 36  1  0  0  0  0
  9 37  1  0  0  0  0
 12 38  1  0  0  0  0
 12 39  1  0  0  0  0
 12 40  1  0  0  0  0
 15 41  1  0  0  0  0
 17 42  1  0  0  0  0
 18 43  1  0  0  0  0
 18 44  1  0  0  0  0
 19 45  1  0  0  0  0
 20 46  1  0  0  0  0
 20 47  1  0  0  0  0
 20 48  1  0  0  0  0
 21 49  1  0  0  0  0
 21 50  1  0  0  0  0
 21 51  1  0  0  0  0
 24 52  1  0  0  0  0
 27 53  1  0  0  0  0
 27 54  1  0  0  0  0
 27 55  1  0  0  0  0
 27 56  1  0  0  0  0
 28 57  1  0  0  0  0
 28 58  1  0  0  0  0
 29 59  1  0  0  0  0
M  END
> <UNIQUE_SMILES>
COC1=CC=C(NC(=O)COC(=O)C(CC(C)C)N2C(=O)C3CC=CCC3C2=O)C=C1Cl

> <USER_SUPPLIED_SMILES>
O=C(OCC(NC1=CC=C(OC)C(Cl)=C1)=O)C(CC(C)C)N2C(C3CC=CCC3C2=O)=O

$$$$
9
APtclcactv03162116352D 0   0.00000     0.00000     9
 
 59 61  0  0  0  0  0  0  0  0999 V2000
    6.2719   -0.8776    0.0000 O   0  0  0  0  0  0  0  0  0  0  0  0
    6.7619   -0.0116    0.0000 C   0  0  0  0  0  0  0  0  0  0  0  0
    7.7619   -0.0116    0.0000 O   0  0  0  0  0  0  0  0  0  0  0  0
    8.2719   -0.8776    0.0000 C   0  0  0  0  0  0  0  0  0  0  0  0
    9.2719   -0.8776    0.0000 C   0  0  0  0  0  0  0  0  0  0  0  0
    9.7619   -1.7437    0.0000 N   0  0  0  0  0  0  0  0  0  0  0  0
   10.7619   -1.7437    0.0000 C   0  0  0  0  0  0  0  0  0  0  0  0
   11.2719   -2.6097    0.0000 C   0  0  0  0  0  0  0  0  0  0  0  0
   12.2719   -2.6097    0.0000 C   0  0  0  0  0  0  0  0  0  0  0  0
   12.7619   -1.7437    0.0000 C   0  0  0  0  0  0  0  0  0  0  0  0
   13.7619   -1.7437    0.0000 O   0  0  0  0  0  0  0  0  0  0  0  0
   14.2719   -2.6097    0.0000 C   0  0  0  0  0  0  0  0  0  0  0  0
   12.2719   -0.8776    0.0000 C   0  0  0  0  0  0  0  0  0  0  0  0
   11.2719   -0.8776    0.0000 C   0  0  0  0  0  0  0  0  0  0  0  0
    9.7619   -0.0116    0.0000 O   0  0  0  0  0  0  0  0  0  0  0  0
    6.2719    0.8544    0.0000 C   0  0  0  0  0  0  0  0  0  0  0  0
    6.7619    1.7204    0.0000 C   0  0  0  0  0  0  0  0  0  0  0  0
    7.7619    1.7204    0.0000 C   0  0  0  0  0  0  0  0  0  0  0  0
    8.2719    2.5865    0.0000 C   0  0  0  0  0  0  0  0  0  0  0  0
    8.2719    0.8544    0.0000 C   0  0  0  0  0  0  0  0  0  0  0  0
    5.2719    0.8544    0.0000 N   0  0  0  0  0  0  0  0  0  0  0  0
    4.6783    1.6592    0.0000 C   0  0  0  0  0  0  0  0  0  0  0  0
    3.7321    1.3544    0.0000 C   0  0  0  0  0  0  0  0  0  0  0  0
    2.8660    1.8544    0.0000 C   0  0  0  0  0  0  0  0  0  0  0  0
    2.0000    1.3544    0.0000 C   0  0  0  0  0  0  0  0  0  0  0  0
    2.0000    0.3544    0.0000 C   0  0  0  0  0  0  0  0  0  0  0  0
    2.8660   -0.1456    0.0000 C   0  0  0  0  0  0  0  0  0  0  0  0
    3.7321    0.3544    0.0000 C   0  0  0  0  0  0  0  0  0  0  0  0
    4.6783    0.0497    0.0000 C   0  0  0  0  0  0  0  0  0  0  0  0
    4.9889   -0.9008    0.0000 O   0  0  0  0  0  0  0  0  0  0  0  0
    4.9889    2.6097    0.0000 O   0  0  0  0  0  0  0  0  0  0  0  0
    7.6793   -1.0897    0.0000 H   0  0  0  0  0  0  0  0  0  0  0  0
    8.3695   -1.4882    0.0000 H   0  0  0  0  0  0  0  0  0  0  0  0
    9.4519   -2.2806    0.0000 H   0  0  0  0  0  0  0  0  0  0  0  0
   10.9519   -3.1466    0.0000 H   0  0  0  0  0  0  0  0  0  0  0  0
   12.5719   -3.1466    0.0000 H   0  0  0  0  0  0  0  0  0  0  0  0
   13.7249   -2.9197    0.0000 H   0  0  0  0  0  0  0  0  0  0  0  0
   14.5719   -3.1466    0.0000 H   0  0  0  0  0  0  0  0  0  0  0  0
   14.7988   -2.2997    0.0000 H   0  0  0  0  0  0  0  0  0  0  0  0
   12.5719   -0.3407    0.0000 H   0  0  0  0  0  0  0  0  0  0  0  0
   10.9519   -0.3407    0.0000 H   0  0  0  0  0  0  0  0  0  0  0  0
    5.9519    1.3914    0.0000 H   0  0  0  0  0  0  0  0  0  0  0  0
    6.8695    2.3310    0.0000 H   0  0  0  0  0  0  0  0  0  0  0  0
    6.1793    1.9327    0.0000 H   0  0  0  0  0  0  0  0  0  0  0  0
    7.4519    2.2774    0.0000 H   0  0  0  0  0  0  0  0  0  0  0  0
    8.7988    2.2765    0.0000 H   0  0  0  0  0  0  0  0  0  0  0  0
    8.5719    3.1234    0.0000 H   0  0  0  0  0  0  0  0  0  0  0  0
    7.7249    2.8965    0.0000 H   0  0  0  0  0  0  0  0  0  0  0  0
    7.7249    0.5444    0.0000 H   0  0  0  0  0  0  0  0  0  0  0  0
    8.5719    0.3175    0.0000 H   0  0  0  0  0  0  0  0  0  0  0  0
    8.7988    1.1644    0.0000 H   0  0  0  0  0  0  0  0  0  0  0  0
    3.7977    1.9709    0.0000 H   0  0  0  0  0  0  0  0  0  0  0  0
    3.2746    2.3294    0.0000 H   0  0  0  0  0  0  0  0  0  0  0  0
    2.4675    2.3294    0.0000 H   0  0  0  0  0  0  0  0  0  0  0  0
    1.4631    1.6644    0.0000 H   0  0  0  0  0  0  0  0  0  0  0  0
    1.4631    0.0444    0.0000 H   0  0  0  0  0  0  0  0  0  0  0  0
    2.4675   -0.6205    0.0000 H   0  0  0  0  0  0  0  0  0  0  0  0
    3.2746   -0.6205    0.0000 H   0  0  0  0  0  0  0  0  0  0  0  0
    3.7977   -0.2721    0.0000 H   0  0  0  0  0  0  0  0  0  0  0  0
  1  2  2  0  0  0  0
  2  3  1  0  0  0  0
  3  4  1  0  0  0  0
  4  5  1  0  0  0  0
  5  6  1  0  0  0  0
  6  7  1  0  0  0  0
  7  8  2  0  0  0  0
  8  9  1  0  0  0  0
  9 10  2  0  0  0  0
 10 11  1  0  0  0  0
 11 12  1  0  0  0  0
 10 13  1  0  0  0  0
 13 14  2  0  0  0  0
  7 14  1  0  0  0  0
  5 15  2  0  0  0  0
  2 16  1  0  0  0  0
 16 17  1  0  0  0  0
 17 18  1  0  0  0  0
 18 19  1  0  0  0  0
 18 20  1  0  0  0  0
 16 21  1  0  0  0  0
 21 22  1  0  0  0  0
 22 23  1  0  0  0  0
 23 24  1  0  0  0  0
 24 27  1  0  0  0  0
 27 27  2  0  0  0  0
 27 27  1  0  0  0  0
 27 28  1  0  0  0  0
 23 28  1  0  0  0  0
 28 29  1  0  0  0  0
 21 29  1  0  0  0  0
 29 30  2  0  0  0  0
 22 31  2  0  0  0  0
  4 32  1  0  0  0  0
  4 33  1  0  0  0  0
  6 34  1  0  0  0  0
  8 35  1  0  0  0  0
  9 36  1  0  0  0  0
 12 37  1  0  0  0  0
 12 38  1  0  0  0  0
 12 39  1  0  0  0  0
 13 40  1  0  0  0  0
 14 41  1  0  0  0  0
 16 42  1  0  0  0  0
 17 43  1  0  0  0  0
 17 44  1  0  0  0  0
 18 45  1  0  0  0  0
 19 46  1  0  0  0  0
 19 47  1  0  0  0  0
 19 48  1  0  0  0  0
 20 49  1  0  0  0  0
 20 50  1  0  0  0  0
 20 51  1  0  0  0  0
 23 52  1  0  0  0  0
 24 53  1  0  0  0  0
 24 54  1  0  0  0  0
 27 55  1  0  0  0  0
 27 56  1  0  0  0  0
 27 57  1  0  0  0  0
 27 58  1  0  0  0  0
 28 59  1  0  0  0  0
M  END
> <UNIQUE_SMILES>
COC1=CC=C(NC(=O)COC(=O)C(CC(C)C)N2C(=O)C3CC=CCC3C2=O)C=C1

> <USER_SUPPLIED_SMILES>
O=C(OCC(NC1=CC=C(OC)C=C1)=O)C(CC(C)C)N2C(C3CC=CCC3C2=O)=O

$$$$
10
APtclcactv03162116352D 0   0.00000     0.00000    10
 
 55 57  0  0  0  0  0  0  0  0999 V2000
    6.2719   -0.4446    0.0000 O   0  0  0  0  0  0  0  0  0  0  0  0
    6.7619    0.4214    0.0000 C   0  0  0  0  0  0  0  0  0  0  0  0
    7.7619    0.4214    0.0000 O   0  0  0  0  0  0  0  0  0  0  0  0
    8.2719   -0.4446    0.0000 C   0  0  0  0  0  0  0  0  0  0  0  0
    9.2719   -0.4446    0.0000 C   0  0  0  0  0  0  0  0  0  0  0  0
    9.7619   -1.3106    0.0000 N   0  0  0  0  0  0  0  0  0  0  0  0
   10.7619   -1.3106    0.0000 C   0  0  0  0  0  0  0  0  0  0  0  0
   11.2719   -0.4446    0.0000 C   0  0  0  0  0  0  0  0  0  0  0  0
   12.2719   -0.4446    0.0000 C   0  0  0  0  0  0  0  0  0  0  0  0
   12.7619   -1.3106    0.0000 C   0  0  0  0  0  0  0  0  0  0  0  0
   12.2719   -2.1767    0.0000 C   0  0  0  0  0  0  0  0  0  0  0  0
   12.7619   -3.0427    0.0000 Cl  0  0  0  0  0  0  0  0  0  0  0  0
   11.2719   -2.1767    0.0000 C   0  0  0  0  0  0  0  0  0  0  0  0
    9.7619    0.4214    0.0000 O   0  0  0  0  0  0  0  0  0  0  0  0
    6.2719    1.2874    0.0000 C   0  0  0  0  0  0  0  0  0  0  0  0
    6.7619    2.1535    0.0000 C   0  0  0  0  0  0  0  0  0  0  0  0
    7.7619    2.1535    0.0000 C   0  0  0  0  0  0  0  0  0  0  0  0
    8.2719    3.0195    0.0000 C   0  0  0  0  0  0  0  0  0  0  0  0
    8.2719    1.2874    0.0000 C   0  0  0  0  0  0  0  0  0  0  0  0
    5.2719    1.2874    0.0000 N   0  0  0  0  0  0  0  0  0  0  0  0
    4.6783    2.0922    0.0000 C   0  0  0  0  0  0  0  0  0  0  0  0
    3.7321    1.7874    0.0000 C   0  0  0  0  0  0  0  0  0  0  0  0
    2.8660    2.2874    0.0000 C   0  0  0  0  0  0  0  0  0  0  0  0
    2.0000    1.7874    0.0000 C   0  0  0  0  0  0  0  0  0  0  0  0
    2.0000    0.7874    0.0000 C   0  0  0  0  0  0  0  0  0  0  0  0
    2.8660    0.2874    0.0000 C   0  0  0  0  0  0  0  0  0  0  0  0
    3.7321    0.7874    0.0000 C   0  0  0  0  0  0  0  0  0  0  0  0
    4.6783    0.4827    0.0000 C   0  0  0  0  0  0  0  0  0  0  0  0
    4.9889   -0.4678    0.0000 O   0  0  0  0  0  0  0  0  0  0  0  0
    4.9889    3.0427    0.0000 O   0  0  0  0  0  0  0  0  0  0  0  0
    7.6793   -0.6567    0.0000 H   0  0  0  0  0  0  0  0  0  0  0  0
    8.3695   -1.0552    0.0000 H   0  0  0  0  0  0  0  0  0  0  0  0
    9.4519   -1.8476    0.0000 H   0  0  0  0  0  0  0  0  0  0  0  0
   10.9519    0.0923    0.0000 H   0  0  0  0  0  0  0  0  0  0  0  0
   12.5719    0.0923    0.0000 H   0  0  0  0  0  0  0  0  0  0  0  0
   13.3819   -1.3106    0.0000 H   0  0  0  0  0  0  0  0  0  0  0  0
   10.9519   -2.7136    0.0000 H   0  0  0  0  0  0  0  0  0  0  0  0
    5.9519    1.8244    0.0000 H   0  0  0  0  0  0  0  0  0  0  0  0
    6.8695    2.7640    0.0000 H   0  0  0  0  0  0  0  0  0  0  0  0
    6.1793    2.3655    0.0000 H   0  0  0  0  0  0  0  0  0  0  0  0
    7.4519    2.6904    0.0000 H   0  0  0  0  0  0  0  0  0  0  0  0
    8.7988    2.7095    0.0000 H   0  0  0  0  0  0  0  0  0  0  0  0
    8.5719    3.5564    0.0000 H   0  0  0  0  0  0  0  0  0  0  0  0
    7.7249    3.3295    0.0000 H   0  0  0  0  0  0  0  0  0  0  0  0
    7.7249    0.9774    0.0000 H   0  0  0  0  0  0  0  0  0  0  0  0
    8.5719    0.7505    0.0000 H   0  0  0  0  0  0  0  0  0  0  0  0
    8.7988    1.5974    0.0000 H   0  0  0  0  0  0  0  0  0  0  0  0
    3.7977    2.4040    0.0000 H   0  0  0  0  0  0  0  0  0  0  0  0
    3.2746    2.7624    0.0000 H   0  0  0  0  0  0  0  0  0  0  0  0
    2.4675    2.7624    0.0000 H   0  0  0  0  0  0  0  0  0  0  0  0
    1.4631    2.0974    0.0000 H   0  0  0  0  0  0  0  0  0  0  0  0
    1.4631    0.4774    0.0000 H   0  0  0  0  0  0  0  0  0  0  0  0
    2.4675   -0.1875    0.0000 H   0  0  0  0  0  0  0  0  0  0  0  0
    3.2746   -0.1875    0.0000 H   0  0  0  0  0  0  0  0  0  0  0  0
    3.7977    0.1709    0.0000 H   0  0  0  0  0  0  0  0  0  0  0  0
  1  2  2  0  0  0  0
  2  3  1  0  0  0  0
  3  4  1  0  0  0  0
  4  5  1  0  0  0  0
  5  6  1  0  0  0  0
  6  7  1  0  0  0  0
  7  8  2  0  0  0  0
  8  9  1  0  0  0  0
  9 10  2  0  0  0  0
 10 11  1  0  0  0  0
 11 12  1  0  0  0  0
 11 13  2  0  0  0  0
  7 13  1  0  0  0  0
  5 14  2  0  0  0  0
  2 15  1  0  0  0  0
 15 16  1  0  0  0  0
 16 17  1  0  0  0  0
 17 18  1  0  0  0  0
 17 19  1  0  0  0  0
 15 20  1  0  0  0  0
 20 21  1  0  0  0  0
 21 22  1  0  0  0  0
 22 23  1  0  0  0  0
 23 24  1  0  0  0  0
 24 27  2  0  0  0  0
 27 27  1  0  0  0  0
 27 27  1  0  0  0  0
 22 27  1  0  0  0  0
 27 28  1  0  0  0  0
 20 28  1  0  0  0  0
 28 29  2  0  0  0  0
 21 30  2  0  0  0  0
  4 31  1  0  0  0  0
  4 32  1  0  0  0  0
  6 33  1  0  0  0  0
  8 34  1  0  0  0  0
  9 35  1  0  0  0  0
 10 36  1  0  0  0  0
 13 37  1  0  0  0  0
 15 38  1  0  0  0  0
 16 39  1  0  0  0  0
 16 40  1  0  0  0  0
 17 41  1  0  0  0  0
 18 42  1  0  0  0  0
 18 43  1  0  0  0  0
 18 44  1  0  0  0  0
 19 45  1  0  0  0  0
 19 46  1  0  0  0  0
 19 47  1  0  0  0  0
 22 48  1  0  0  0  0
 23 49  1  0  0  0  0
 23 50  1  0  0  0  0
 24 51  1  0  0  0  0
 27 52  1  0  0  0  0
 27 53  1  0  0  0  0
 27 54  1  0  0  0  0
 27 55  1  0  0  0  0
M  END
> <UNIQUE_SMILES>
CC(C)CC(N1C(=O)C2CC=CCC2C1=O)C(=O)OCC(=O)NC3=CC=CC(=C3)Cl

> <USER_SUPPLIED_SMILES>
O=C(OCC(NC1=CC=CC(Cl)=C1)=O)C(CC(C)C)N2C(C3CC=CCC3C2=O)=O

$$$$
11
APtclcactv03162116352D 0   0.00000     0.00000    11
 
 55 57  0  0  0  0  0  0  0  0999 V2000
    6.2719   -0.8776    0.0000 O   0  0  0  0  0  0  0  0  0  0  0  0
    6.7619   -0.0116    0.0000 C   0  0  0  0  0  0  0  0  0  0  0  0
    7.7619   -0.0116    0.0000 O   0  0  0  0  0  0  0  0  0  0  0  0
    8.2719   -0.8776    0.0000 C   0  0  0  0  0  0  0  0  0  0  0  0
    9.2719   -0.8776    0.0000 C   0  0  0  0  0  0  0  0  0  0  0  0
    9.7619   -1.7437    0.0000 N   0  0  0  0  0  0  0  0  0  0  0  0
   10.7619   -1.7437    0.0000 C   0  0  0  0  0  0  0  0  0  0  0  0
   11.2719   -2.6097    0.0000 C   0  0  0  0  0  0  0  0  0  0  0  0
   12.2719   -2.6097    0.0000 C   0  0  0  0  0  0  0  0  0  0  0  0
   12.7619   -1.7437    0.0000 C   0  0  0  0  0  0  0  0  0  0  0  0
   12.2719   -0.8776    0.0000 C   0  0  0  0  0  0  0  0  0  0  0  0
   11.2719   -0.8776    0.0000 C   0  0  0  0  0  0  0  0  0  0  0  0
    9.7619   -0.0116    0.0000 O   0  0  0  0  0  0  0  0  0  0  0  0
    6.2719    0.8544    0.0000 C   0  0  0  0  0  0  0  0  0  0  0  0
    6.7619    1.7204    0.0000 C   0  0  0  0  0  0  0  0  0  0  0  0
    7.7619    1.7204    0.0000 C   0  0  0  0  0  0  0  0  0  0  0  0
    8.2719    2.5865    0.0000 C   0  0  0  0  0  0  0  0  0  0  0  0
    8.2719    0.8544    0.0000 C   0  0  0  0  0  0  0  0  0  0  0  0
    5.2719    0.8544    0.0000 N   0  0  0  0  0  0  0  0  0  0  0  0
    4.6783    1.6592    0.0000 C   0  0  0  0  0  0  0  0  0  0  0  0
    3.7321    1.3544    0.0000 C   0  0  0  0  0  0  0  0  0  0  0  0
    2.8660    1.8544    0.0000 C   0  0  0  0  0  0  0  0  0  0  0  0
    2.0000    1.3544    0.0000 C   0  0  0  0  0  0  0  0  0  0  0  0
    2.0000    0.3544    0.0000 C   0  0  0  0  0  0  0  0  0  0  0  0
    2.8660   -0.1456    0.0000 C   0  0  0  0  0  0  0  0  0  0  0  0
    3.7321    0.3544    0.0000 C   0  0  0  0  0  0  0  0  0  0  0  0
    4.6783    0.0497    0.0000 C   0  0  0  0  0  0  0  0  0  0  0  0
    4.9889   -0.9008    0.0000 O   0  0  0  0  0  0  0  0  0  0  0  0
    4.9889    2.6097    0.0000 O   0  0  0  0  0  0  0  0  0  0  0  0
    7.6793   -1.0897    0.0000 H   0  0  0  0  0  0  0  0  0  0  0  0
    8.3695   -1.4882    0.0000 H   0  0  0  0  0  0  0  0  0  0  0  0
    9.4519   -2.2806    0.0000 H   0  0  0  0  0  0  0  0  0  0  0  0
   10.9519   -3.1466    0.0000 H   0  0  0  0  0  0  0  0  0  0  0  0
   12.5719   -3.1466    0.0000 H   0  0  0  0  0  0  0  0  0  0  0  0
   13.3819   -1.7437    0.0000 H   0  0  0  0  0  0  0  0  0  0  0  0
   12.5719   -0.3407    0.0000 H   0  0  0  0  0  0  0  0  0  0  0  0
   10.9519   -0.3407    0.0000 H   0  0  0  0  0  0  0  0  0  0  0  0
    5.9519    1.3914    0.0000 H   0  0  0  0  0  0  0  0  0  0  0  0
    6.8695    2.3310    0.0000 H   0  0  0  0  0  0  0  0  0  0  0  0
    6.1793    1.9327    0.0000 H   0  0  0  0  0  0  0  0  0  0  0  0
    7.4519    2.2774    0.0000 H   0  0  0  0  0  0  0  0  0  0  0  0
    8.7988    2.2765    0.0000 H   0  0  0  0  0  0  0  0  0  0  0  0
    8.5719    3.1234    0.0000 H   0  0  0  0  0  0  0  0  0  0  0  0
    7.7249    2.8965    0.0000 H   0  0  0  0  0  0  0  0  0  0  0  0
    7.7249    0.5444    0.0000 H   0  0  0  0  0  0  0  0  0  0  0  0
    8.5719    0.3175    0.0000 H   0  0  0  0  0  0  0  0  0  0  0  0
    8.7988    1.1644    0.0000 H   0  0  0  0  0  0  0  0  0  0  0  0
    3.7977    1.9709    0.0000 H   0  0  0  0  0  0  0  0  0  0  0  0
    3.2746    2.3294    0.0000 H   0  0  0  0  0  0  0  0  0  0  0  0
    2.4675    2.3294    0.0000 H   0  0  0  0  0  0  0  0  0  0  0  0
    1.4631    1.6644    0.0000 H   0  0  0  0  0  0  0  0  0  0  0  0
    1.4631    0.0444    0.0000 H   0  0  0  0  0  0  0  0  0  0  0  0
    2.4675   -0.6205    0.0000 H   0  0  0  0  0  0  0  0  0  0  0  0
    3.2746   -0.6205    0.0000 H   0  0  0  0  0  0  0  0  0  0  0  0
    3.7977   -0.2721    0.0000 H   0  0  0  0  0  0  0  0  0  0  0  0
  1  2  2  0  0  0  0
  2  3  1  0  0  0  0
  3  4  1  0  0  0  0
  4  5  1  0  0  0  0
  5  6  1  0  0  0  0
  6  7  1  0  0  0  0
  7  8  2  0  0  0  0
  8  9  1  0  0  0  0
  9 10  2  0  0  0  0
 10 11  1  0  0  0  0
 11 12  2  0  0  0  0
  7 12  1  0  0  0  0
  5 13  2  0  0  0  0
  2 14  1  0  0  0  0
 14 15  1  0  0  0  0
 15 16  1  0  0  0  0
 16 17  1  0  0  0  0
 16 18  1  0  0  0  0
 14 19  1  0  0  0  0
 19 20  1  0  0  0  0
 20 21  1  0  0  0  0
 21 22  1  0  0  0  0
 22 23  1  0  0  0  0
 23 24  2  0  0  0  0
 24 27  1  0  0  0  0
 27 27  1  0  0  0  0
 21 27  1  0  0  0  0
 27 27  1  0  0  0  0
 19 27  1  0  0  0  0
 27 28  2  0  0  0  0
 20 29  2  0  0  0  0
  4 30  1  0  0  0  0
  4 31  1  0  0  0  0
  6 32  1  0  0  0  0
  8 33  1  0  0  0  0
  9 34  1  0  0  0  0
 10 35  1  0  0  0  0
 11 36  1  0  0  0  0
 12 37  1  0  0  0  0
 14 38  1  0  0  0  0
 15 39  1  0  0  0  0
 15 40  1  0  0  0  0
 16 41  1  0  0  0  0
 17 42  1  0  0  0  0
 17 43  1  0  0  0  0
 17 44  1  0  0  0  0
 18 45  1  0  0  0  0
 18 46  1  0  0  0  0
 18 47  1  0  0  0  0
 21 48  1  0  0  0  0
 22 49  1  0  0  0  0
 22 50  1  0  0  0  0
 23 51  1  0  0  0  0
 24 52  1  0  0  0  0
 27 53  1  0  0  0  0
 27 54  1  0  0  0  0
 27 55  1  0  0  0  0
M  END
> <UNIQUE_SMILES>
CC(C)CC(N1C(=O)C2CC=CCC2C1=O)C(=O)OCC(=O)NC3=CC=CC=C3

> <USER_SUPPLIED_SMILES>
O=C(OCC(NC1=CC=CC=C1)=O)C(CC(C)C)N2C(C3CC=CCC3C2=O)=O

$$$$
12
APtclcactv03162116352D 0   0.00000     0.00000    12
 
 55 57  0  0  0  0  0  0  0  0999 V2000
    6.2719   -0.8776    0.0000 O   0  0  0  0  0  0  0  0  0  0  0  0
    6.7619   -0.0116    0.0000 C   0  0  0  0  0  0  0  0  0  0  0  0
    7.7619   -0.0116    0.0000 O   0  0  0  0  0  0  0  0  0  0  0  0
    8.2719   -0.8776    0.0000 C   0  0  0  0  0  0  0  0  0  0  0  0
    9.2719   -0.8776    0.0000 C   0  0  0  0  0  0  0  0  0  0  0  0
    9.7619   -1.7437    0.0000 N   0  0  0  0  0  0  0  0  0  0  0  0
   10.7619   -1.7437    0.0000 C   0  0  0  0  0  0  0  0  0  0  0  0
   11.2719   -2.6097    0.0000 C   0  0  0  0  0  0  0  0  0  0  0  0
   12.2719   -2.6097    0.0000 C   0  0  0  0  0  0  0  0  0  0  0  0
   12.7619   -1.7437    0.0000 C   0  0  0  0  0  0  0  0  0  0  0  0
   13.7619   -1.7437    0.0000 F   0  0  0  0  0  0  0  0  0  0  0  0
   12.2719   -0.8776    0.0000 C   0  0  0  0  0  0  0  0  0  0  0  0
   11.2719   -0.8776    0.0000 C   0  0  0  0  0  0  0  0  0  0  0  0
    9.7619   -0.0116    0.0000 O   0  0  0  0  0  0  0  0  0  0  0  0
    6.2719    0.8544    0.0000 C   0  0  0  0  0  0  0  0  0  0  0  0
    6.7619    1.7204    0.0000 C   0  0  0  0  0  0  0  0  0  0  0  0
    7.7619    1.7204    0.0000 C   0  0  0  0  0  0  0  0  0  0  0  0
    8.2719    2.5865    0.0000 C   0  0  0  0  0  0  0  0  0  0  0  0
    8.2719    0.8544    0.0000 C   0  0  0  0  0  0  0  0  0  0  0  0
    5.2719    0.8544    0.0000 N   0  0  0  0  0  0  0  0  0  0  0  0
    4.6783    1.6592    0.0000 C   0  0  0  0  0  0  0  0  0  0  0  0
    3.7321    1.3544    0.0000 C   0  0  0  0  0  0  0  0  0  0  0  0
    2.8660    1.8544    0.0000 C   0  0  0  0  0  0  0  0  0  0  0  0
    2.0000    1.3544    0.0000 C   0  0  0  0  0  0  0  0  0  0  0  0
    2.0000    0.3544    0.0000 C   0  0  0  0  0  0  0  0  0  0  0  0
    2.8660   -0.1456    0.0000 C   0  0  0  0  0  0  0  0  0  0  0  0
    3.7321    0.3544    0.0000 C   0  0  0  0  0  0  0  0  0  0  0  0
    4.6783    0.0497    0.0000 C   0  0  0  0  0  0  0  0  0  0  0  0
    4.9889   -0.9008    0.0000 O   0  0  0  0  0  0  0  0  0  0  0  0
    4.9889    2.6097    0.0000 O   0  0  0  0  0  0  0  0  0  0  0  0
    7.6793   -1.0897    0.0000 H   0  0  0  0  0  0  0  0  0  0  0  0
    8.3695   -1.4882    0.0000 H   0  0  0  0  0  0  0  0  0  0  0  0
    9.4519   -2.2806    0.0000 H   0  0  0  0  0  0  0  0  0  0  0  0
   10.9519   -3.1466    0.0000 H   0  0  0  0  0  0  0  0  0  0  0  0
   12.5719   -3.1466    0.0000 H   0  0  0  0  0  0  0  0  0  0  0  0
   12.5719   -0.3407    0.0000 H   0  0  0  0  0  0  0  0  0  0  0  0
   10.9519   -0.3407    0.0000 H   0  0  0  0  0  0  0  0  0  0  0  0
    5.9519    1.3914    0.0000 H   0  0  0  0  0  0  0  0  0  0  0  0
    6.8695    2.3310    0.0000 H   0  0  0  0  0  0  0  0  0  0  0  0
    6.1793    1.9327    0.0000 H   0  0  0  0  0  0  0  0  0  0  0  0
    7.4519    2.2774    0.0000 H   0  0  0  0  0  0  0  0  0  0  0  0
    8.7988    2.2765    0.0000 H   0  0  0  0  0  0  0  0  0  0  0  0
    8.5719    3.1234    0.0000 H   0  0  0  0  0  0  0  0  0  0  0  0
    7.7249    2.8965    0.0000 H   0  0  0  0  0  0  0  0  0  0  0  0
    7.7249    0.5444    0.0000 H   0  0  0  0  0  0  0  0  0  0  0  0
    8.5719    0.3175    0.0000 H   0  0  0  0  0  0  0  0  0  0  0  0
    8.7988    1.1644    0.0000 H   0  0  0  0  0  0  0  0  0  0  0  0
    3.7977    1.9709    0.0000 H   0  0  0  0  0  0  0  0  0  0  0  0
    3.2746    2.3294    0.0000 H   0  0  0  0  0  0  0  0  0  0  0  0
    2.4675    2.3294    0.0000 H   0  0  0  0  0  0  0  0  0  0  0  0
    1.4631    1.6644    0.0000 H   0  0  0  0  0  0  0  0  0  0  0  0
    1.4631    0.0444    0.0000 H   0  0  0  0  0  0  0  0  0  0  0  0
    2.4675   -0.6205    0.0000 H   0  0  0  0  0  0  0  0  0  0  0  0
    3.2746   -0.6205    0.0000 H   0  0  0  0  0  0  0  0  0  0  0  0
    3.7977   -0.2721    0.0000 H   0  0  0  0  0  0  0  0  0  0  0  0
  1  2  2  0  0  0  0
  2  3  1  0  0  0  0
  3  4  1  0  0  0  0
  4  5  1  0  0  0  0
  5  6  1  0  0  0  0
  6  7  1  0  0  0  0
  7  8  2  0  0  0  0
  8  9  1  0  0  0  0
  9 10  2  0  0  0  0
 10 11  1  0  0  0  0
 10 12  1  0  0  0  0
 12 13  2  0  0  0  0
  7 13  1  0  0  0  0
  5 14  2  0  0  0  0
  2 15  1  0  0  0  0
 15 16  1  0  0  0  0
 16 17  1  0  0  0  0
 17 18  1  0  0  0  0
 17 19  1  0  0  0  0
 15 20  1  0  0  0  0
 20 21  1  0  0  0  0
 21 22  1  0  0  0  0
 22 23  1  0  0  0  0
 23 24  1  0  0  0  0
 24 27  2  0  0  0  0
 27 27  1  0  0  0  0
 27 27  1  0  0  0  0
 22 27  1  0  0  0  0
 27 28  1  0  0  0  0
 20 28  1  0  0  0  0
 28 29  2  0  0  0  0
 21 30  2  0  0  0  0
  4 31  1  0  0  0  0
  4 32  1  0  0  0  0
  6 33  1  0  0  0  0
  8 34  1  0  0  0  0
  9 35  1  0  0  0  0
 12 36  1  0  0  0  0
 13 37  1  0  0  0  0
 15 38  1  0  0  0  0
 16 39  1  0  0  0  0
 16 40  1  0  0  0  0
 17 41  1  0  0  0  0
 18 42  1  0  0  0  0
 18 43  1  0  0  0  0
 18 44  1  0  0  0  0
 19 45  1  0  0  0  0
 19 46  1  0  0  0  0
 19 47  1  0  0  0  0
 22 48  1  0  0  0  0
 23 49  1  0  0  0  0
 23 50  1  0  0  0  0
 24 51  1  0  0  0  0
 27 52  1  0  0  0  0
 27 53  1  0  0  0  0
 27 54  1  0  0  0  0
 27 55  1  0  0  0  0
M  END
> <UNIQUE_SMILES>
CC(C)CC(N1C(=O)C2CC=CCC2C1=O)C(=O)OCC(=O)NC3=CC=C(F)C=C3

> <USER_SUPPLIED_SMILES>
O=C(OCC(NC1=CC=C(F)C=C1)=O)C(CC(C)C)N2C(C3CC=CCC3C2=O)=O

$$$$
13
APtclcactv03162116352D 0   0.00000     0.00000    13
 
 61 64  0  0  0  0  0  0  0  0999 V2000
    6.8069   -1.4680    0.0000 O   0  0  0  0  0  0  0  0  0  0  0  0
    6.8069   -0.4680    0.0000 C   0  0  0  0  0  0  0  0  0  0  0  0
    7.6729    0.0320    0.0000 O   0  0  0  0  0  0  0  0  0  0  0  0
    8.5390   -0.4680    0.0000 C   0  0  0  0  0  0  0  0  0  0  0  0
    9.4050    0.0320    0.0000 C   0  0  0  0  0  0  0  0  0  0  0  0
   10.2710   -0.4680    0.0000 N   0  0  0  0  0  0  0  0  0  0  0  0
   11.1370    0.0320    0.0000 C   0  0  0  0  0  0  0  0  0  0  0  0
   11.1370    1.0320    0.0000 C   0  0  0  0  0  0  0  0  0  0  0  0
   12.0031    1.5320    0.0000 C   0  0  0  0  0  0  0  0  0  0  0  0
   12.8691    1.0320    0.0000 C   0  0  0  0  0  0  0  0  0  0  0  0
   13.7630    1.5666    0.0000 C   0  0  0  0  0  0  0  0  0  0  0  0
   14.6691    1.0528    0.0000 C   0  0  0  0  0  0  0  0  0  0  0  0
   14.6691    0.0112    0.0000 C   0  0  0  0  0  0  0  0  0  0  0  0
   13.7630   -0.5027    0.0000 C   0  0  0  0  0  0  0  0  0  0  0  0
   12.8691    0.0320    0.0000 C   0  0  0  0  0  0  0  0  0  0  0  0
   12.0031   -0.4680    0.0000 C   0  0  0  0  0  0  0  0  0  0  0  0
    9.4050    1.0320    0.0000 O   0  0  0  0  0  0  0  0  0  0  0  0
    5.9409    0.0320    0.0000 C   0  0  0  0  0  0  0  0  0  0  0  0
    5.9409    1.0320    0.0000 C   0  0  0  0  0  0  0  0  0  0  0  0
    6.8069    1.5320    0.0000 C   0  0  0  0  0  0  0  0  0  0  0  0
    6.8069    2.5320    0.0000 C   0  0  0  0  0  0  0  0  0  0  0  0
    7.6729    1.0320    0.0000 C   0  0  0  0  0  0  0  0  0  0  0  0
    5.0749   -0.4680    0.0000 N   0  0  0  0  0  0  0  0  0  0  0  0
    4.9718   -1.4567    0.0000 C   0  0  0  0  0  0  0  0  0  0  0  0
    4.0000   -1.6660    0.0000 C   0  0  0  0  0  0  0  0  0  0  0  0
    3.5000   -2.5320    0.0000 C   0  0  0  0  0  0  0  0  0  0  0  0
    2.5000   -2.5320    0.0000 C   0  0  0  0  0  0  0  0  0  0  0  0
    2.0000   -1.6660    0.0000 C   0  0  0  0  0  0  0  0  0  0  0  0
    2.5000   -0.7999    0.0000 C   0  0  0  0  0  0  0  0  0  0  0  0
    3.5000   -0.7999    0.0000 C   0  0  0  0  0  0  0  0  0  0  0  0
    4.1671   -0.0629    0.0000 C   0  0  0  0  0  0  0  0  0  0  0  0
    3.9609    0.9156    0.0000 O   0  0  0  0  0  0  0  0  0  0  0  0
    5.7161   -2.1246    0.0000 O   0  0  0  0  0  0  0  0  0  0  0  0
    8.1404   -0.9430    0.0000 H   0  0  0  0  0  0  0  0  0  0  0  0
    8.9375   -0.9430    0.0000 H   0  0  0  0  0  0  0  0  0  0  0  0
   10.2710   -1.0880    0.0000 H   0  0  0  0  0  0  0  0  0  0  0  0
   10.6001    1.3420    0.0000 H   0  0  0  0  0  0  0  0  0  0  0  0
   12.0031    2.1520    0.0000 H   0  0  0  0  0  0  0  0  0  0  0  0
   13.7559    2.1866    0.0000 H   0  0  0  0  0  0  0  0  0  0  0  0
   15.2048    1.3649    0.0000 H   0  0  0  0  0  0  0  0  0  0  0  0
   15.2048   -0.3009    0.0000 H   0  0  0  0  0  0  0  0  0  0  0  0
   13.7559   -1.1227    0.0000 H   0  0  0  0  0  0  0  0  0  0  0  0
   12.0031   -1.0880    0.0000 H   0  0  0  0  0  0  0  0  0  0  0  0
    5.4040    0.3420    0.0000 H   0  0  0  0  0  0  0  0  0  0  0  0
    5.7288    1.6146    0.0000 H   0  0  0  0  0  0  0  0  0  0  0  0
    5.3303    0.9243    0.0000 H   0  0  0  0  0  0  0  0  0  0  0  0
    6.8069    0.9120    0.0000 H   0  0  0  0  0  0  0  0  0  0  0  0
    7.4279    2.5320    0.0000 H   0  0  0  0  0  0  0  0  0  0  0  0
    6.8069    3.1520    0.0000 H   0  0  0  0  0  0  0  0  0  0  0  0
    6.1869    2.5320    0.0000 H   0  0  0  0  0  0  0  0  0  0  0  0
    7.3629    0.4950    0.0000 H   0  0  0  0  0  0  0  0  0  0  0  0
    8.2099    0.7220    0.0000 H   0  0  0  0  0  0  0  0  0  0  0  0
    7.9829    1.5689    0.0000 H   0  0  0  0  0  0  0  0  0  0  0  0
    4.3651   -2.1671    0.0000 H   0  0  0  0  0  0  0  0  0  0  0  0
    3.3923   -3.1427    0.0000 H   0  0  0  0  0  0  0  0  0  0  0  0
    4.0827   -2.7440    0.0000 H   0  0  0  0  0  0  0  0  0  0  0  0
    2.1900   -3.0689    0.0000 H   0  0  0  0  0  0  0  0  0  0  0  0
    1.3800   -1.6660    0.0000 H   0  0  0  0  0  0  0  0  0  0  0  0
    2.6077   -0.1893    0.0000 H   0  0  0  0  0  0  0  0  0  0  0  0
    1.9174   -0.5879    0.0000 H   0  0  0  0  0  0  0  0  0  0  0  0
    3.2486   -0.2332    0.0000 H   0  0  0  0  0  0  0  0  0  0  0  0
  1  2  2  0  0  0  0
  2  3  1  0  0  0  0
  3  4  1  0  0  0  0
  4  5  1  0  0  0  0
  5  6  1  0  0  0  0
  6  7  1  0  0  0  0
  7  8  2  0  0  0  0
  8  9  1  0  0  0  0
  9 10  2  0  0  0  0
 10 11  1  0  0  0  0
 11 12  2  0  0  0  0
 12 13  1  0  0  0  0
 13 14  2  0  0  0  0
 10 15  1  0  0  0  0
 14 15  1  0  0  0  0
 15 16  2  0  0  0  0
  7 16  1  0  0  0  0
  5 17  2  0  0  0  0
  2 18  1  0  0  0  0
 18 19  1  0  0  0  0
 19 20  1  0  0  0  0
 20 21  1  0  0  0  0
 20 22  1  0  0  0  0
 18 23  1  0  0  0  0
 23 24  1  0  0  0  0
 24 27  1  0  0  0  0
 27 27  1  0  0  0  0
 27 27  1  0  0  0  0
 27 28  2  0  0  0  0
 28 29  1  0  0  0  0
 29 30  1  0  0  0  0
 27 30  1  0  0  0  0
 30 31  1  0  0  0  0
 23 31  1  0  0  0  0
 31 32  2  0  0  0  0
 24 33  2  0  0  0  0
  4 34  1  0  0  0  0
  4 35  1  0  0  0  0
  6 36  1  0  0  0  0
  8 37  1  0  0  0  0
  9 38  1  0  0  0  0
 11 39  1  0  0  0  0
 12 40  1  0  0  0  0
 13 41  1  0  0  0  0
 14 42  1  0  0  0  0
 16 43  1  0  0  0  0
 18 44  1  0  0  0  0
 19 45  1  0  0  0  0
 19 46  1  0  0  0  0
 20 47  1  0  0  0  0
 21 48  1  0  0  0  0
 21 49  1  0  0  0  0
 21 50  1  0  0  0  0
 22 51  1  0  0  0  0
 22 52  1  0  0  0  0
 22 53  1  0  0  0  0
 27 54  1  0  0  0  0
 27 55  1  0  0  0  0
 27 56  1  0  0  0  0
 27 57  1  0  0  0  0
 28 58  1  0  0  0  0
 29 59  1  0  0  0  0
 29 60  1  0  0  0  0
 30 61  1  0  0  0  0
M  END
> <UNIQUE_SMILES>
CC(C)CC(N1C(=O)C2CC=CCC2C1=O)C(=O)OCC(=O)NC3=CC=C4C=CC=CC4=C3

> <USER_SUPPLIED_SMILES>
O=C(OCC(NC1=CC=C(C=CC=C2)C2=C1)=O)C(CC(C)C)N3C(C4CC=CCC4C3=O)=O

$$$$
14'
APtclcactv03162116352D 0   0.00000     0.00000    14
 
 60 62  0  0  0  0  0  0  0  0999 V2000
    6.2719   -0.8776    0.0000 O   0  0  0  0  0  0  0  0  0  0  0  0
    6.7619   -0.0116    0.0000 C   0  0  0  0  0  0  0  0  0  0  0  0
    7.7619   -0.0116    0.0000 O   0  0  0  0  0  0  0  0  0  0  0  0
    8.2719   -0.8776    0.0000 C   0  0  0  0  0  0  0  0  0  0  0  0
    9.2719   -0.8776    0.0000 C   0  0  0  0  0  0  0  0  0  0  0  0
    9.7619   -1.7437    0.0000 N   0  0  0  0  0  0  0  0  0  0  0  0
   10.7619   -1.7437    0.0000 C   0  0  0  0  0  0  0  0  0  0  0  0
   11.2719   -2.6097    0.0000 C   0  0  0  0  0  0  0  0  0  0  0  0
   12.2719   -2.6097    0.0000 C   0  0  0  0  0  0  0  0  0  0  0  0
   12.7619   -1.7437    0.0000 C   0  0  0  0  0  0  0  0  0  0  0  0
   13.7619   -1.7437    0.0000 N   0  0  0  0  0  0  0  0  0  0  0  0
   14.2719   -2.6097    0.0000 C   0  0  0  0  0  0  0  0  0  0  0  0
   12.2719   -0.8776    0.0000 C   0  0  0  0  0  0  0  0  0  0  0  0
   11.2719   -0.8776    0.0000 C   0  0  0  0  0  0  0  0  0  0  0  0
    9.7619   -0.0116    0.0000 O   0  0  0  0  0  0  0  0  0  0  0  0
    6.2719    0.8544    0.0000 C   0  0  0  0  0  0  0  0  0  0  0  0
    6.7619    1.7204    0.0000 C   0  0  0  0  0  0  0  0  0  0  0  0
    7.7619    1.7204    0.0000 C   0  0  0  0  0  0  0  0  0  0  0  0
    8.2719    2.5865    0.0000 C   0  0  0  0  0  0  0  0  0  0  0  0
    8.2719    0.8544    0.0000 C   0  0  0  0  0  0  0  0  0  0  0  0
    5.2719    0.8544    0.0000 N   0  0  0  0  0  0  0  0  0  0  0  0
    4.6783    1.6592    0.0000 C   0  0  0  0  0  0  0  0  0  0  0  0
    3.7321    1.3544    0.0000 C   0  0  0  0  0  0  0  0  0  0  0  0
    2.8660    1.8544    0.0000 C   0  0  0  0  0  0  0  0  0  0  0  0
    2.0000    1.3544    0.0000 C   0  0  0  0  0  0  0  0  0  0  0  0
    2.0000    0.3544    0.0000 C   0  0  0  0  0  0  0  0  0  0  0  0
    2.8660   -0.1456    0.0000 C   0  0  0  0  0  0  0  0  0  0  0  0
    3.7321    0.3544    0.0000 C   0  0  0  0  0  0  0  0  0  0  0  0
    4.6783    0.0497    0.0000 C   0  0  0  0  0  0  0  0  0  0  0  0
    4.9889   -0.9008    0.0000 O   0  0  0  0  0  0  0  0  0  0  0  0
    4.9889    2.6097    0.0000 O   0  0  0  0  0  0  0  0  0  0  0  0
    7.6793   -1.0897    0.0000 H   0  0  0  0  0  0  0  0  0  0  0  0
    8.3695   -1.4882    0.0000 H   0  0  0  0  0  0  0  0  0  0  0  0
    9.4519   -2.2806    0.0000 H   0  0  0  0  0  0  0  0  0  0  0  0
   10.9519   -3.1466    0.0000 H   0  0  0  0  0  0  0  0  0  0  0  0
   12.5719   -3.1466    0.0000 H   0  0  0  0  0  0  0  0  0  0  0  0
   14.0719   -1.2067    0.0000 H   0  0  0  0  0  0  0  0  0  0  0  0
   13.7249   -2.9197    0.0000 H   0  0  0  0  0  0  0  0  0  0  0  0
   14.5719   -3.1466    0.0000 H   0  0  0  0  0  0  0  0  0  0  0  0
   14.7988   -2.2997    0.0000 H   0  0  0  0  0  0  0  0  0  0  0  0
   12.5719   -0.3407    0.0000 H   0  0  0  0  0  0  0  0  0  0  0  0
   10.9519   -0.3407    0.0000 H   0  0  0  0  0  0  0  0  0  0  0  0
    5.9519    1.3914    0.0000 H   0  0  0  0  0  0  0  0  0  0  0  0
    6.8695    2.3310    0.0000 H   0  0  0  0  0  0  0  0  0  0  0  0
    6.1793    1.9327    0.0000 H   0  0  0  0  0  0  0  0  0  0  0  0
    7.4519    2.2774    0.0000 H   0  0  0  0  0  0  0  0  0  0  0  0
    8.7988    2.2765    0.0000 H   0  0  0  0  0  0  0  0  0  0  0  0
    8.5719    3.1234    0.0000 H   0  0  0  0  0  0  0  0  0  0  0  0
    7.7249    2.8965    0.0000 H   0  0  0  0  0  0  0  0  0  0  0  0
    7.7249    0.5444    0.0000 H   0  0  0  0  0  0  0  0  0  0  0  0
    8.5719    0.3175    0.0000 H   0  0  0  0  0  0  0  0  0  0  0  0
    8.7988    1.1644    0.0000 H   0  0  0  0  0  0  0  0  0  0  0  0
    3.7977    1.9709    0.0000 H   0  0  0  0  0  0  0  0  0  0  0  0
    3.2746    2.3294    0.0000 H   0  0  0  0  0  0  0  0  0  0  0  0
    2.4675    2.3294    0.0000 H   0  0  0  0  0  0  0  0  0  0  0  0
    1.4631    1.6644    0.0000 H   0  0  0  0  0  0  0  0  0  0  0  0
    1.4631    0.0444    0.0000 H   0  0  0  0  0  0  0  0  0  0  0  0
    2.4675   -0.6205    0.0000 H   0  0  0  0  0  0  0  0  0  0  0  0
    3.2746   -0.6205    0.0000 H   0  0  0  0  0  0  0  0  0  0  0  0
    3.7977   -0.2721    0.0000 H   0  0  0  0  0  0  0  0  0  0  0  0
  1  2  2  0  0  0  0
  2  3  1  0  0  0  0
  3  4  1  0  0  0  0
  4  5  1  0  0  0  0
  5  6  1  0  0  0  0
  6  7  1  0  0  0  0
  7  8  2  0  0  0  0
  8  9  1  0  0  0  0
  9 10  2  0  0  0  0
 10 11  1  0  0  0  0
 11 12  1  0  0  0  0
 10 13  1  0  0  0  0
 13 14  2  0  0  0  0
  7 14  1  0  0  0  0
  5 15  2  0  0  0  0
  2 16  1  0  0  0  0
 16 17  1  0  0  0  0
 17 18  1  0  0  0  0
 18 19  1  0  0  0  0
 18 20  1  0  0  0  0
 16 21  1  0  0  0  0
 21 22  1  0  0  0  0
 22 23  1  0  0  0  0
 23 24  1  0  0  0  0
 24 27  1  0  0  0  0
 27 27  2  0  0  0  0
 27 27  1  0  0  0  0
 27 28  1  0  0  0  0
 23 28  1  0  0  0  0
 28 29  1  0  0  0  0
 21 29  1  0  0  0  0
 29 30  2  0  0  0  0
 22 31  2  0  0  0  0
  4 32  1  0  0  0  0
  4 33  1  0  0  0  0
  6 34  1  0  0  0  0
  8 35  1  0  0  0  0
  9 36  1  0  0  0  0
 11 37  1  0  0  0  0
 12 38  1  0  0  0  0
 12 39  1  0  0  0  0
 12 40  1  0  0  0  0
 13 41  1  0  0  0  0
 14 42  1  0  0  0  0
 16 43  1  0  0  0  0
 17 44  1  0  0  0  0
 17 45  1  0  0  0  0
 18 46  1  0  0  0  0
 19 47  1  0  0  0  0
 19 48  1  0  0  0  0
 19 49  1  0  0  0  0
 20 50  1  0  0  0  0
 20 51  1  0  0  0  0
 20 52  1  0  0  0  0
 23 53  1  0  0  0  0
 24 54  1  0  0  0  0
 24 55  1  0  0  0  0
 27 56  1  0  0  0  0
 27 57  1  0  0  0  0
 27 58  1  0  0  0  0
 27 59  1  0  0  0  0
 28 60  1  0  0  0  0
M  END
> <UNIQUE_SMILES>
CNC1=CC=C(NC(=O)COC(=O)C(CC(C)C)N2C(=O)C3CC=CCC3C2=O)C=C1

> <USER_SUPPLIED_SMILES>
O=C(OCC(NC1=CC=C(NC)C=C1)=O)C(CC(C)C)N2C(C3CC=CCC3C2=O)=O

$$$$
15'
APtclcactv03162116352D 0   0.00000     0.00000    15
 
 57 59  0  0  0  0  0  0  0  0999 V2000
    6.2719   -0.8776    0.0000 O   0  0  0  0  0  0  0  0  0  0  0  0
    6.7619   -0.0116    0.0000 C   0  0  0  0  0  0  0  0  0  0  0  0
    7.7619   -0.0116    0.0000 O   0  0  0  0  0  0  0  0  0  0  0  0
    8.2719   -0.8776    0.0000 C   0  0  0  0  0  0  0  0  0  0  0  0
    9.2719   -0.8776    0.0000 C   0  0  0  0  0  0  0  0  0  0  0  0
    9.7619   -1.7437    0.0000 N   0  0  0  0  0  0  0  0  0  0  0  0
   10.7619   -1.7437    0.0000 C   0  0  0  0  0  0  0  0  0  0  0  0
   11.2719   -2.6097    0.0000 C   0  0  0  0  0  0  0  0  0  0  0  0
   12.2719   -2.6097    0.0000 C   0  0  0  0  0  0  0  0  0  0  0  0
   12.7619   -1.7437    0.0000 C   0  0  0  0  0  0  0  0  0  0  0  0
   13.7619   -1.7437    0.0000 N   0  0  0  0  0  0  0  0  0  0  0  0
   12.2719   -0.8776    0.0000 C   0  0  0  0  0  0  0  0  0  0  0  0
   11.2719   -0.8776    0.0000 C   0  0  0  0  0  0  0  0  0  0  0  0
    9.7619   -0.0116    0.0000 O   0  0  0  0  0  0  0  0  0  0  0  0
    6.2719    0.8544    0.0000 C   0  0  0  0  0  0  0  0  0  0  0  0
    6.7619    1.7204    0.0000 C   0  0  0  0  0  0  0  0  0  0  0  0
    7.7619    1.7204    0.0000 C   0  0  0  0  0  0  0  0  0  0  0  0
    8.2719    2.5865    0.0000 C   0  0  0  0  0  0  0  0  0  0  0  0
    8.2719    0.8544    0.0000 C   0  0  0  0  0  0  0  0  0  0  0  0
    5.2719    0.8544    0.0000 N   0  0  0  0  0  0  0  0  0  0  0  0
    4.6783    1.6592    0.0000 C   0  0  0  0  0  0  0  0  0  0  0  0
    3.7321    1.3544    0.0000 C   0  0  0  0  0  0  0  0  0  0  0  0
    2.8660    1.8544    0.0000 C   0  0  0  0  0  0  0  0  0  0  0  0
    2.0000    1.3544    0.0000 C   0  0  0  0  0  0  0  0  0  0  0  0
    2.0000    0.3544    0.0000 C   0  0  0  0  0  0  0  0  0  0  0  0
    2.8660   -0.1456    0.0000 C   0  0  0  0  0  0  0  0  0  0  0  0
    3.7321    0.3544    0.0000 C   0  0  0  0  0  0  0  0  0  0  0  0
    4.6783    0.0497    0.0000 C   0  0  0  0  0  0  0  0  0  0  0  0
    4.9889   -0.9008    0.0000 O   0  0  0  0  0  0  0  0  0  0  0  0
    4.9889    2.6097    0.0000 O   0  0  0  0  0  0  0  0  0  0  0  0
    7.6793   -1.0897    0.0000 H   0  0  0  0  0  0  0  0  0  0  0  0
    8.3695   -1.4882    0.0000 H   0  0  0  0  0  0  0  0  0  0  0  0
    9.4519   -2.2806    0.0000 H   0  0  0  0  0  0  0  0  0  0  0  0
   10.9519   -3.1466    0.0000 H   0  0  0  0  0  0  0  0  0  0  0  0
   12.5719   -3.1466    0.0000 H   0  0  0  0  0  0  0  0  0  0  0  0
   14.0719   -2.2806    0.0000 H   0  0  0  0  0  0  0  0  0  0  0  0
   14.0719   -1.2067    0.0000 H   0  0  0  0  0  0  0  0  0  0  0  0
   12.5719   -0.3407    0.0000 H   0  0  0  0  0  0  0  0  0  0  0  0
   10.9519   -0.3407    0.0000 H   0  0  0  0  0  0  0  0  0  0  0  0
    5.9519    1.3914    0.0000 H   0  0  0  0  0  0  0  0  0  0  0  0
    6.8695    2.3310    0.0000 H   0  0  0  0  0  0  0  0  0  0  0  0
    6.1793    1.9327    0.0000 H   0  0  0  0  0  0  0  0  0  0  0  0
    7.4519    2.2774    0.0000 H   0  0  0  0  0  0  0  0  0  0  0  0
    8.7988    2.2765    0.0000 H   0  0  0  0  0  0  0  0  0  0  0  0
    8.5719    3.1234    0.0000 H   0  0  0  0  0  0  0  0  0  0  0  0
    7.7249    2.8965    0.0000 H   0  0  0  0  0  0  0  0  0  0  0  0
    7.7249    0.5444    0.0000 H   0  0  0  0  0  0  0  0  0  0  0  0
    8.5719    0.3175    0.0000 H   0  0  0  0  0  0  0  0  0  0  0  0
    8.7988    1.1644    0.0000 H   0  0  0  0  0  0  0  0  0  0  0  0
    3.7977    1.9709    0.0000 H   0  0  0  0  0  0  0  0  0  0  0  0
    3.2746    2.3294    0.0000 H   0  0  0  0  0  0  0  0  0  0  0  0
    2.4675    2.3294    0.0000 H   0  0  0  0  0  0  0  0  0  0  0  0
    1.4631    1.6644    0.0000 H   0  0  0  0  0  0  0  0  0  0  0  0
    1.4631    0.0444    0.0000 H   0  0  0  0  0  0  0  0  0  0  0  0
    2.4675   -0.6205    0.0000 H   0  0  0  0  0  0  0  0  0  0  0  0
    3.2746   -0.6205    0.0000 H   0  0  0  0  0  0  0  0  0  0  0  0
    3.7977   -0.2721    0.0000 H   0  0  0  0  0  0  0  0  0  0  0  0
  1  2  2  0  0  0  0
  2  3  1  0  0  0  0
  3  4  1  0  0  0  0
  4  5  1  0  0  0  0
  5  6  1  0  0  0  0
  6  7  1  0  0  0  0
  7  8  2  0  0  0  0
  8  9  1  0  0  0  0
  9 10  2  0  0  0  0
 10 11  1  0  0  0  0
 10 12  1  0  0  0  0
 12 13  2  0  0  0  0
  7 13  1  0  0  0  0
  5 14  2  0  0  0  0
  2 15  1  0  0  0  0
 15 16  1  0  0  0  0
 16 17  1  0  0  0  0
 17 18  1  0  0  0  0
 17 19  1  0  0  0  0
 15 20  1  0  0  0  0
 20 21  1  0  0  0  0
 21 22  1  0  0  0  0
 22 23  1  0  0  0  0
 23 24  1  0  0  0  0
 24 27  2  0  0  0  0
 27 27  1  0  0  0  0
 27 27  1  0  0  0  0
 22 27  1  0  0  0  0
 27 28  1  0  0  0  0
 20 28  1  0  0  0  0
 28 29  2  0  0  0  0
 21 30  2  0  0  0  0
  4 31  1  0  0  0  0
  4 32  1  0  0  0  0
  6 33  1  0  0  0  0
  8 34  1  0  0  0  0
  9 35  1  0  0  0  0
 11 36  1  0  0  0  0
 11 37  1  0  0  0  0
 12 38  1  0  0  0  0
 13 39  1  0  0  0  0
 15 40  1  0  0  0  0
 16 41  1  0  0  0  0
 16 42  1  0  0  0  0
 17 43  1  0  0  0  0
 18 44  1  0  0  0  0
 18 45  1  0  0  0  0
 18 46  1  0  0  0  0
 19 47  1  0  0  0  0
 19 48  1  0  0  0  0
 19 49  1  0  0  0  0
 22 50  1  0  0  0  0
 23 51  1  0  0  0  0
 23 52  1  0  0  0  0
 24 53  1  0  0  0  0
 27 54  1  0  0  0  0
 27 55  1  0  0  0  0
 27 56  1  0  0  0  0
 27 57  1  0  0  0  0
M  END
> <UNIQUE_SMILES>
CC(C)CC(N1C(=O)C2CC=CCC2C1=O)C(=O)OCC(=O)NC3=CC=C(N)C=C3

> <USER_SUPPLIED_SMILES>
O=C(OCC(NC1=CC=C(N)C=C1)=O)C(CC(C)C)N2C(C3CC=CCC3C2=O)=O

$$$$
16'
APtclcactv03162116352D 0   0.00000     0.00000    16
 
 59 61  0  0  0  0  0  0  0  0999 V2000
    6.2719   -0.8776    0.0000 O   0  0  0  0  0  0  0  0  0  0  0  0
    6.7619   -0.0116    0.0000 C   0  0  0  0  0  0  0  0  0  0  0  0
    7.7619   -0.0116    0.0000 O   0  0  0  0  0  0  0  0  0  0  0  0
    8.2719   -0.8776    0.0000 C   0  0  0  0  0  0  0  0  0  0  0  0
    9.2719   -0.8776    0.0000 C   0  0  0  0  0  0  0  0  0  0  0  0
    9.7619   -1.7437    0.0000 N   0  0  0  0  0  0  0  0  0  0  0  0
   10.7619   -1.7437    0.0000 C   0  0  0  0  0  0  0  0  0  0  0  0
   11.2719   -2.6097    0.0000 C   0  0  0  0  0  0  0  0  0  0  0  0
   12.2719   -2.6097    0.0000 C   0  0  0  0  0  0  0  0  0  0  0  0
   12.7619   -1.7437    0.0000 C   0  0  0  0  0  0  0  0  0  0  0  0
   13.7619   -1.7437    0.0000 O   0  0  0  0  0  0  0  0  0  0  0  0
   14.2719   -2.6097    0.0000 C   0  0  0  0  0  0  0  0  0  0  0  0
   12.2719   -0.8776    0.0000 C   0  0  0  0  0  0  0  0  0  0  0  0
   11.2719   -0.8776    0.0000 C   0  0  0  0  0  0  0  0  0  0  0  0
    9.7619   -0.0116    0.0000 O   0  0  0  0  0  0  0  0  0  0  0  0
    6.2719    0.8544    0.0000 C   0  0  0  0  0  0  0  0  0  0  0  0
    6.7619    1.7204    0.0000 C   0  0  0  0  0  0  0  0  0  0  0  0
    7.7619    1.7204    0.0000 C   0  0  0  0  0  0  0  0  0  0  0  0
    8.2719    2.5865    0.0000 C   0  0  0  0  0  0  0  0  0  0  0  0
    8.2719    0.8544    0.0000 C   0  0  0  0  0  0  0  0  0  0  0  0
    5.2719    0.8544    0.0000 N   0  0  0  0  0  0  0  0  0  0  0  0
    4.6783    1.6592    0.0000 C   0  0  0  0  0  0  0  0  0  0  0  0
    3.7321    1.3544    0.0000 C   0  0  0  0  0  0  0  0  0  0  0  0
    2.8660    1.8544    0.0000 C   0  0  0  0  0  0  0  0  0  0  0  0
    2.0000    1.3544    0.0000 C   0  0  0  0  0  0  0  0  0  0  0  0
    2.0000    0.3544    0.0000 C   0  0  0  0  0  0  0  0  0  0  0  0
    2.8660   -0.1456    0.0000 C   0  0  0  0  0  0  0  0  0  0  0  0
    3.7321    0.3544    0.0000 C   0  0  0  0  0  0  0  0  0  0  0  0
    4.6783    0.0497    0.0000 C   0  0  0  0  0  0  0  0  0  0  0  0
    4.9889   -0.9008    0.0000 O   0  0  0  0  0  0  0  0  0  0  0  0
    4.9889    2.6097    0.0000 O   0  0  0  0  0  0  0  0  0  0  0  0
    7.6793   -1.0897    0.0000 H   0  0  0  0  0  0  0  0  0  0  0  0
    8.3695   -1.4882    0.0000 H   0  0  0  0  0  0  0  0  0  0  0  0
    9.4519   -2.2806    0.0000 H   0  0  0  0  0  0  0  0  0  0  0  0
   10.9519   -3.1466    0.0000 H   0  0  0  0  0  0  0  0  0  0  0  0
   12.5719   -3.1466    0.0000 H   0  0  0  0  0  0  0  0  0  0  0  0
   13.7249   -2.9197    0.0000 H   0  0  0  0  0  0  0  0  0  0  0  0
   14.5719   -3.1466    0.0000 H   0  0  0  0  0  0  0  0  0  0  0  0
   14.7988   -2.2997    0.0000 H   0  0  0  0  0  0  0  0  0  0  0  0
   12.5719   -0.3407    0.0000 H   0  0  0  0  0  0  0  0  0  0  0  0
   10.9519   -0.3407    0.0000 H   0  0  0  0  0  0  0  0  0  0  0  0
    5.9519    1.3914    0.0000 H   0  0  0  0  0  0  0  0  0  0  0  0
    6.8695    2.3310    0.0000 H   0  0  0  0  0  0  0  0  0  0  0  0
    6.1793    1.9327    0.0000 H   0  0  0  0  0  0  0  0  0  0  0  0
    7.4519    2.2774    0.0000 H   0  0  0  0  0  0  0  0  0  0  0  0
    8.7988    2.2765    0.0000 H   0  0  0  0  0  0  0  0  0  0  0  0
    8.5719    3.1234    0.0000 H   0  0  0  0  0  0  0  0  0  0  0  0
    7.7249    2.8965    0.0000 H   0  0  0  0  0  0  0  0  0  0  0  0
    7.7249    0.5444    0.0000 H   0  0  0  0  0  0  0  0  0  0  0  0
    8.5719    0.3175    0.0000 H   0  0  0  0  0  0  0  0  0  0  0  0
    8.7988    1.1644    0.0000 H   0  0  0  0  0  0  0  0  0  0  0  0
    3.7977    1.9709    0.0000 H   0  0  0  0  0  0  0  0  0  0  0  0
    3.2746    2.3294    0.0000 H   0  0  0  0  0  0  0  0  0  0  0  0
    2.4675    2.3294    0.0000 H   0  0  0  0  0  0  0  0  0  0  0  0
    1.4631    1.6644    0.0000 H   0  0  0  0  0  0  0  0  0  0  0  0
    1.4631    0.0444    0.0000 H   0  0  0  0  0  0  0  0  0  0  0  0
    2.4675   -0.6205    0.0000 H   0  0  0  0  0  0  0  0  0  0  0  0
    3.2746   -0.6205    0.0000 H   0  0  0  0  0  0  0  0  0  0  0  0
    3.7977   -0.2721    0.0000 H   0  0  0  0  0  0  0  0  0  0  0  0
  1  2  2  0  0  0  0
  2  3  1  0  0  0  0
  3  4  1  0  0  0  0
  4  5  1  0  0  0  0
  5  6  1  0  0  0  0
  6  7  1  0  0  0  0
  7  8  2  0  0  0  0
  8  9  1  0  0  0  0
  9 10  2  0  0  0  0
 10 11  1  0  0  0  0
 11 12  1  0  0  0  0
 10 13  1  0  0  0  0
 13 14  2  0  0  0  0
  7 14  1  0  0  0  0
  5 15  2  0  0  0  0
  2 16  1  0  0  0  0
 16 17  1  0  0  0  0
 17 18  1  0  0  0  0
 18 19  1  0  0  0  0
 18 20  1  0  0  0  0
 16 21  1  0  0  0  0
 21 22  1  0  0  0  0
 22 23  1  0  0  0  0
 23 24  1  0  0  0  0
 24 27  1  0  0  0  0
 27 27  2  0  0  0  0
 27 27  1  0  0  0  0
 27 28  1  0  0  0  0
 23 28  1  0  0  0  0
 28 29  1  0  0  0  0
 21 29  1  0  0  0  0
 29 30  2  0  0  0  0
 22 31  2  0  0  0  0
  4 32  1  0  0  0  0
  4 33  1  0  0  0  0
  6 34  1  0  0  0  0
  8 35  1  0  0  0  0
  9 36  1  0  0  0  0
 12 37  1  0  0  0  0
 12 38  1  0  0  0  0
 12 39  1  0  0  0  0
 13 40  1  0  0  0  0
 14 41  1  0  0  0  0
 16 42  1  0  0  0  0
 17 43  1  0  0  0  0
 17 44  1  0  0  0  0
 18 45  1  0  0  0  0
 19 46  1  0  0  0  0
 19 47  1  0  0  0  0
 19 48  1  0  0  0  0
 20 49  1  0  0  0  0
 20 50  1  0  0  0  0
 20 51  1  0  0  0  0
 23 52  1  0  0  0  0
 24 53  1  0  0  0  0
 24 54  1  0  0  0  0
 27 55  1  0  0  0  0
 27 56  1  0  0  0  0
 27 57  1  0  0  0  0
 27 58  1  0  0  0  0
 28 59  1  0  0  0  0
M  END
> <UNIQUE_SMILES>
COC1=CC=C(NC(=O)COC(=O)C(CC(C)C)N2C(=O)C3CC=CCC3C2=O)C=C1

> <USER_SUPPLIED_SMILES>
O=C(OCC(NC1=CC=C(OC)C=C1)=O)C(CC(C)C)N2C(C3CC=CCC3C2=O)=O

$$$$
17
APtclcactv03162116352D 0   0.00000     0.00000    17
 
 33 34  0  0  0  0  0  0  0  0999 V2000
    4.5981    2.6488    0.0000 O   0  0  0  0  0  0  0  0  0  0  0  0
    5.4641    2.1488    0.0000 C   0  0  0  0  0  0  0  0  0  0  0  0
    6.3301    2.6488    0.0000 N   0  0  0  0  0  0  0  0  0  0  0  0
    6.4347    3.6433    0.0000 C   0  0  0  0  0  0  0  0  0  0  0  0
    7.4128    3.8512    0.0000 C   0  0  0  0  0  0  0  0  0  0  0  0
    7.9128    2.9852    0.0000 N   0  0  0  0  0  0  0  0  0  0  0  0
    7.2437    2.2420    0.0000 C   0  0  0  0  0  0  0  0  0  0  0  0
    5.4641    1.1488    0.0000 N   0  0  0  0  0  0  0  0  0  0  0  0
    4.5981    0.6488    0.0000 C   0  0  0  0  0  0  0  0  0  0  0  0
    4.5981   -0.3512    0.0000 C   0  0  0  0  0  0  0  0  0  0  0  0
    3.7321   -0.8512    0.0000 O   0  0  0  0  0  0  0  0  0  0  0  0
    3.7321   -1.8512    0.0000 C   0  0  0  0  0  0  0  0  0  0  0  0
    2.8660   -2.3512    0.0000 C   0  0  0  0  0  0  0  0  0  0  0  0
    2.8660   -3.3512    0.0000 C   0  0  0  0  0  0  0  0  0  0  0  0
    2.0000   -3.8512    0.0000 C   0  0  0  0  0  0  0  0  0  0  0  0
    3.7321   -3.8512    0.0000 C   0  0  0  0  0  0  0  0  0  0  0  0
    4.5981   -3.3512    0.0000 C   0  0  0  0  0  0  0  0  0  0  0  0
    4.5981   -2.3512    0.0000 C   0  0  0  0  0  0  0  0  0  0  0  0
    5.9739    4.0582    0.0000 H   0  0  0  0  0  0  0  0  0  0  0  0
    7.6650    4.4176    0.0000 H   0  0  0  0  0  0  0  0  0  0  0  0
    7.3727    1.6356    0.0000 H   0  0  0  0  0  0  0  0  0  0  0  0
    6.0010    0.8388    0.0000 H   0  0  0  0  0  0  0  0  0  0  0  0
    4.3860    1.2314    0.0000 H   0  0  0  0  0  0  0  0  0  0  0  0
    3.9875    0.5411    0.0000 H   0  0  0  0  0  0  0  0  0  0  0  0
    4.8101   -0.9338    0.0000 H   0  0  0  0  0  0  0  0  0  0  0  0
    5.2087   -0.2436    0.0000 H   0  0  0  0  0  0  0  0  0  0  0  0
    2.3291   -2.0412    0.0000 H   0  0  0  0  0  0  0  0  0  0  0  0
    1.6900   -3.3143    0.0000 H   0  0  0  0  0  0  0  0  0  0  0  0
    1.4631   -4.1612    0.0000 H   0  0  0  0  0  0  0  0  0  0  0  0
    2.3100   -4.3882    0.0000 H   0  0  0  0  0  0  0  0  0  0  0  0
    3.7321   -4.4712    0.0000 H   0  0  0  0  0  0  0  0  0  0  0  0
    5.1350   -3.6612    0.0000 H   0  0  0  0  0  0  0  0  0  0  0  0
    5.1350   -2.0412    0.0000 H   0  0  0  0  0  0  0  0  0  0  0  0
  1  2  2  0  0  0  0
  2  3  1  0  0  0  0
  3  4  1  0  0  0  0
  4  5  2  0  0  0  0
  5  6  1  0  0  0  0
  6  7  2  0  0  0  0
  3  7  1  0  0  0  0
  2  8  1  0  0  0  0
  8  9  1  0  0  0  0
  9 10  1  0  0  0  0
 10 11  1  0  0  0  0
 11 12  1  0  0  0  0
 12 13  2  0  0  0  0
 13 14  1  0  0  0  0
 14 15  1  0  0  0  0
 14 16  2  0  0  0  0
 16 17  1  0  0  0  0
 17 18  2  0  0  0  0
 12 18  1  0  0  0  0
  4 19  1  0  0  0  0
  5 20  1  0  0  0  0
  7 21  1  0  0  0  0
  8 22  1  0  0  0  0
  9 23  1  0  0  0  0
  9 24  1  0  0  0  0
 10 27  1  0  0  0  0
 10 27  1  0  0  0  0
 13 27  1  0  0  0  0
 15 28  1  0  0  0  0
 15 29  1  0  0  0  0
 15 30  1  0  0  0  0
 16 31  1  0  0  0  0
 17 32  1  0  0  0  0
 18 33  1  0  0  0  0
M  END
> <UNIQUE_SMILES>
CC1=CC=CC(=C1)OCCNC(=O)[N]2C=CN=C2

> <USER_SUPPLIED_SMILES>
O=C(N1C=CN=C1)NCCOC2=CC(C)=CC=C2

$$$$
18
APtclcactv03162116352D 0   0.00000     0.00000    18
 
 30 31  0  0  0  0  0  0  0  0999 V2000
    4.5981    2.6488    0.0000 O   0  0  0  0  0  0  0  0  0  0  0  0
    5.4641    2.1488    0.0000 C   0  0  0  0  0  0  0  0  0  0  0  0
    6.3301    2.6488    0.0000 N   0  0  0  0  0  0  0  0  0  0  0  0
    6.4347    3.6433    0.0000 C   0  0  0  0  0  0  0  0  0  0  0  0
    7.4128    3.8512    0.0000 C   0  0  0  0  0  0  0  0  0  0  0  0
    7.9128    2.9852    0.0000 N   0  0  0  0  0  0  0  0  0  0  0  0
    7.2437    2.2420    0.0000 C   0  0  0  0  0  0  0  0  0  0  0  0
    5.4641    1.1488    0.0000 N   0  0  0  0  0  0  0  0  0  0  0  0
    4.5981    0.6488    0.0000 C   0  0  0  0  0  0  0  0  0  0  0  0
    4.5981   -0.3512    0.0000 C   0  0  0  0  0  0  0  0  0  0  0  0
    3.7321   -0.8512    0.0000 O   0  0  0  0  0  0  0  0  0  0  0  0
    3.7321   -1.8512    0.0000 C   0  0  0  0  0  0  0  0  0  0  0  0
    2.8660   -2.3512    0.0000 C   0  0  0  0  0  0  0  0  0  0  0  0
    2.8660   -3.3512    0.0000 C   0  0  0  0  0  0  0  0  0  0  0  0
    2.0000   -3.8512    0.0000 F   0  0  0  0  0  0  0  0  0  0  0  0
    3.7321   -3.8512    0.0000 C   0  0  0  0  0  0  0  0  0  0  0  0
    4.5981   -3.3512    0.0000 C   0  0  0  0  0  0  0  0  0  0  0  0
    4.5981   -2.3512    0.0000 C   0  0  0  0  0  0  0  0  0  0  0  0
    5.9739    4.0582    0.0000 H   0  0  0  0  0  0  0  0  0  0  0  0
    7.6650    4.4176    0.0000 H   0  0  0  0  0  0  0  0  0  0  0  0
    7.3727    1.6356    0.0000 H   0  0  0  0  0  0  0  0  0  0  0  0
    6.0010    0.8388    0.0000 H   0  0  0  0  0  0  0  0  0  0  0  0
    4.3860    1.2314    0.0000 H   0  0  0  0  0  0  0  0  0  0  0  0
    3.9875    0.5411    0.0000 H   0  0  0  0  0  0  0  0  0  0  0  0
    4.8101   -0.9338    0.0000 H   0  0  0  0  0  0  0  0  0  0  0  0
    5.2087   -0.2436    0.0000 H   0  0  0  0  0  0  0  0  0  0  0  0
    2.3291   -2.0412    0.0000 H   0  0  0  0  0  0  0  0  0  0  0  0
    3.7321   -4.4712    0.0000 H   0  0  0  0  0  0  0  0  0  0  0  0
    5.1350   -3.6612    0.0000 H   0  0  0  0  0  0  0  0  0  0  0  0
    5.1350   -2.0412    0.0000 H   0  0  0  0  0  0  0  0  0  0  0  0
  1  2  2  0  0  0  0
  2  3  1  0  0  0  0
  3  4  1  0  0  0  0
  4  5  2  0  0  0  0
  5  6  1  0  0  0  0
  6  7  2  0  0  0  0
  3  7  1  0  0  0  0
  2  8  1  0  0  0  0
  8  9  1  0  0  0  0
  9 10  1  0  0  0  0
 10 11  1  0  0  0  0
 11 12  1  0  0  0  0
 12 13  2  0  0  0  0
 13 14  1  0  0  0  0
 14 15  1  0  0  0  0
 14 16  2  0  0  0  0
 16 17  1  0  0  0  0
 17 18  2  0  0  0  0
 12 18  1  0  0  0  0
  4 19  1  0  0  0  0
  5 20  1  0  0  0  0
  7 21  1  0  0  0  0
  8 22  1  0  0  0  0
  9 23  1  0  0  0  0
  9 24  1  0  0  0  0
 10 27  1  0  0  0  0
 10 27  1  0  0  0  0
 13 27  1  0  0  0  0
 16 28  1  0  0  0  0
 17 29  1  0  0  0  0
 18 30  1  0  0  0  0
M  END
> <UNIQUE_SMILES>
FC1=CC=CC(=C1)OCCNC(=O)[N]2C=CN=C2

> <USER_SUPPLIED_SMILES>
O=C(N1C=CN=C1)NCCOC2=CC(F)=CC=C2

$$$$
19
APtclcactv03162116352D 0   0.00000     0.00000    19
 
 30 31  0  0  0  0  0  0  0  0999 V2000
    4.5981    2.6488    0.0000 O   0  0  0  0  0  0  0  0  0  0  0  0
    5.4641    2.1488    0.0000 C   0  0  0  0  0  0  0  0  0  0  0  0
    6.3301    2.6488    0.0000 N   0  0  0  0  0  0  0  0  0  0  0  0
    6.4347    3.6433    0.0000 C   0  0  0  0  0  0  0  0  0  0  0  0
    7.4128    3.8512    0.0000 C   0  0  0  0  0  0  0  0  0  0  0  0
    7.9128    2.9852    0.0000 N   0  0  0  0  0  0  0  0  0  0  0  0
    7.2437    2.2420    0.0000 C   0  0  0  0  0  0  0  0  0  0  0  0
    5.4641    1.1488    0.0000 N   0  0  0  0  0  0  0  0  0  0  0  0
    4.5981    0.6488    0.0000 C   0  0  0  0  0  0  0  0  0  0  0  0
    4.5981   -0.3512    0.0000 C   0  0  0  0  0  0  0  0  0  0  0  0
    3.7321   -0.8512    0.0000 O   0  0  0  0  0  0  0  0  0  0  0  0
    3.7321   -1.8512    0.0000 C   0  0  0  0  0  0  0  0  0  0  0  0
    2.8660   -2.3512    0.0000 C   0  0  0  0  0  0  0  0  0  0  0  0
    2.8660   -3.3512    0.0000 C   0  0  0  0  0  0  0  0  0  0  0  0
    2.0000   -3.8512    0.0000 Cl  0  0  0  0  0  0  0  0  0  0  0  0
    3.7321   -3.8512    0.0000 C   0  0  0  0  0  0  0  0  0  0  0  0
    4.5981   -3.3512    0.0000 C   0  0  0  0  0  0  0  0  0  0  0  0
    4.5981   -2.3512    0.0000 C   0  0  0  0  0  0  0  0  0  0  0  0
    5.9739    4.0582    0.0000 H   0  0  0  0  0  0  0  0  0  0  0  0
    7.6650    4.4176    0.0000 H   0  0  0  0  0  0  0  0  0  0  0  0
    7.3727    1.6356    0.0000 H   0  0  0  0  0  0  0  0  0  0  0  0
    6.0010    0.8388    0.0000 H   0  0  0  0  0  0  0  0  0  0  0  0
    4.3860    1.2314    0.0000 H   0  0  0  0  0  0  0  0  0  0  0  0
    3.9875    0.5411    0.0000 H   0  0  0  0  0  0  0  0  0  0  0  0
    4.8101   -0.9338    0.0000 H   0  0  0  0  0  0  0  0  0  0  0  0
    5.2087   -0.2436    0.0000 H   0  0  0  0  0  0  0  0  0  0  0  0
    2.3291   -2.0412    0.0000 H   0  0  0  0  0  0  0  0  0  0  0  0
    3.7321   -4.4712    0.0000 H   0  0  0  0  0  0  0  0  0  0  0  0
    5.1350   -3.6612    0.0000 H   0  0  0  0  0  0  0  0  0  0  0  0
    5.1350   -2.0412    0.0000 H   0  0  0  0  0  0  0  0  0  0  0  0
  1  2  2  0  0  0  0
  2  3  1  0  0  0  0
  3  4  1  0  0  0  0
  4  5  2  0  0  0  0
  5  6  1  0  0  0  0
  6  7  2  0  0  0  0
  3  7  1  0  0  0  0
  2  8  1  0  0  0  0
  8  9  1  0  0  0  0
  9 10  1  0  0  0  0
 10 11  1  0  0  0  0
 11 12  1  0  0  0  0
 12 13  2  0  0  0  0
 13 14  1  0  0  0  0
 14 15  1  0  0  0  0
 14 16  2  0  0  0  0
 16 17  1  0  0  0  0
 17 18  2  0  0  0  0
 12 18  1  0  0  0  0
  4 19  1  0  0  0  0
  5 20  1  0  0  0  0
  7 21  1  0  0  0  0
  8 22  1  0  0  0  0
  9 23  1  0  0  0  0
  9 24  1  0  0  0  0
 10 27  1  0  0  0  0
 10 27  1  0  0  0  0
 13 27  1  0  0  0  0
 16 28  1  0  0  0  0
 17 29  1  0  0  0  0
 18 30  1  0  0  0  0
M  END
> <UNIQUE_SMILES>
ClC1=CC=CC(=C1)OCCNC(=O)[N]2C=CN=C2

> <USER_SUPPLIED_SMILES>
O=C(N1C=CN=C1)NCCOC2=CC(Cl)=CC=C2

$$$$
20
APtclcactv03162116352D 0   0.00000     0.00000    20
 
 30 31  0  0  0  0  0  0  0  0999 V2000
    4.5981    2.6488    0.0000 O   0  0  0  0  0  0  0  0  0  0  0  0
    5.4641    2.1488    0.0000 C   0  0  0  0  0  0  0  0  0  0  0  0
    6.3301    2.6488    0.0000 N   0  0  0  0  0  0  0  0  0  0  0  0
    6.4347    3.6433    0.0000 C   0  0  0  0  0  0  0  0  0  0  0  0
    7.4128    3.8512    0.0000 C   0  0  0  0  0  0  0  0  0  0  0  0
    7.9128    2.9852    0.0000 N   0  0  0  0  0  0  0  0  0  0  0  0
    7.2437    2.2420    0.0000 C   0  0  0  0  0  0  0  0  0  0  0  0
    5.4641    1.1488    0.0000 N   0  0  0  0  0  0  0  0  0  0  0  0
    4.5981    0.6488    0.0000 C   0  0  0  0  0  0  0  0  0  0  0  0
    4.5981   -0.3512    0.0000 C   0  0  0  0  0  0  0  0  0  0  0  0
    3.7321   -0.8512    0.0000 O   0  0  0  0  0  0  0  0  0  0  0  0
    3.7321   -1.8512    0.0000 C   0  0  0  0  0  0  0  0  0  0  0  0
    2.8660   -2.3512    0.0000 C   0  0  0  0  0  0  0  0  0  0  0  0
    2.8660   -3.3512    0.0000 C   0  0  0  0  0  0  0  0  0  0  0  0
    2.0000   -3.8512    0.0000 Br  0  0  0  0  0  0  0  0  0  0  0  0
    3.7321   -3.8512    0.0000 C   0  0  0  0  0  0  0  0  0  0  0  0
    4.5981   -3.3512    0.0000 C   0  0  0  0  0  0  0  0  0  0  0  0
    4.5981   -2.3512    0.0000 C   0  0  0  0  0  0  0  0  0  0  0  0
    5.9739    4.0582    0.0000 H   0  0  0  0  0  0  0  0  0  0  0  0
    7.6650    4.4176    0.0000 H   0  0  0  0  0  0  0  0  0  0  0  0
    7.3727    1.6356    0.0000 H   0  0  0  0  0  0  0  0  0  0  0  0
    6.0010    0.8388    0.0000 H   0  0  0  0  0  0  0  0  0  0  0  0
    4.3860    1.2314    0.0000 H   0  0  0  0  0  0  0  0  0  0  0  0
    3.9875    0.5411    0.0000 H   0  0  0  0  0  0  0  0  0  0  0  0
    4.8101   -0.9338    0.0000 H   0  0  0  0  0  0  0  0  0  0  0  0
    5.2087   -0.2436    0.0000 H   0  0  0  0  0  0  0  0  0  0  0  0
    2.3291   -2.0412    0.0000 H   0  0  0  0  0  0  0  0  0  0  0  0
    3.7321   -4.4712    0.0000 H   0  0  0  0  0  0  0  0  0  0  0  0
    5.1350   -3.6612    0.0000 H   0  0  0  0  0  0  0  0  0  0  0  0
    5.1350   -2.0412    0.0000 H   0  0  0  0  0  0  0  0  0  0  0  0
  1  2  2  0  0  0  0
  2  3  1  0  0  0  0
  3  4  1  0  0  0  0
  4  5  2  0  0  0  0
  5  6  1  0  0  0  0
  6  7  2  0  0  0  0
  3  7  1  0  0  0  0
  2  8  1  0  0  0  0
  8  9  1  0  0  0  0
  9 10  1  0  0  0  0
 10 11  1  0  0  0  0
 11 12  1  0  0  0  0
 12 13  2  0  0  0  0
 13 14  1  0  0  0  0
 14 15  1  0  0  0  0
 14 16  2  0  0  0  0
 16 17  1  0  0  0  0
 17 18  2  0  0  0  0
 12 18  1  0  0  0  0
  4 19  1  0  0  0  0
  5 20  1  0  0  0  0
  7 21  1  0  0  0  0
  8 22  1  0  0  0  0
  9 23  1  0  0  0  0
  9 24  1  0  0  0  0
 10 27  1  0  0  0  0
 10 27  1  0  0  0  0
 13 27  1  0  0  0  0
 16 28  1  0  0  0  0
 17 29  1  0  0  0  0
 18 30  1  0  0  0  0
M  END
> <UNIQUE_SMILES>
BrC1=CC=CC(=C1)OCCNC(=O)[N]2C=CN=C2

> <USER_SUPPLIED_SMILES>
O=C(N1C=CN=C1)NCCOC2=CC(Br)=CC=C2

$$$$
21
APtclcactv03162116352D 0   0.00000     0.00000    21
 
 30 31  0  0  0  0  0  0  0  0999 V2000
    4.5981    2.6488    0.0000 O   0  0  0  0  0  0  0  0  0  0  0  0
    5.4641    2.1488    0.0000 C   0  0  0  0  0  0  0  0  0  0  0  0
    6.3301    2.6488    0.0000 N   0  0  0  0  0  0  0  0  0  0  0  0
    6.4347    3.6433    0.0000 C   0  0  0  0  0  0  0  0  0  0  0  0
    7.4128    3.8512    0.0000 C   0  0  0  0  0  0  0  0  0  0  0  0
    7.9128    2.9852    0.0000 N   0  0  0  0  0  0  0  0  0  0  0  0
    7.2437    2.2420    0.0000 C   0  0  0  0  0  0  0  0  0  0  0  0
    5.4641    1.1488    0.0000 N   0  0  0  0  0  0  0  0  0  0  0  0
    4.5981    0.6488    0.0000 C   0  0  0  0  0  0  0  0  0  0  0  0
    4.5981   -0.3512    0.0000 C   0  0  0  0  0  0  0  0  0  0  0  0
    3.7321   -0.8512    0.0000 O   0  0  0  0  0  0  0  0  0  0  0  0
    3.7321   -1.8512    0.0000 C   0  0  0  0  0  0  0  0  0  0  0  0
    2.8660   -2.3512    0.0000 C   0  0  0  0  0  0  0  0  0  0  0  0
    2.8660   -3.3512    0.0000 C   0  0  0  0  0  0  0  0  0  0  0  0
    2.0000   -3.8512    0.0000 I   0  0  0  0  0  0  0  0  0  0  0  0
    3.7321   -3.8512    0.0000 C   0  0  0  0  0  0  0  0  0  0  0  0
    4.5981   -3.3512    0.0000 C   0  0  0  0  0  0  0  0  0  0  0  0
    4.5981   -2.3512    0.0000 C   0  0  0  0  0  0  0  0  0  0  0  0
    5.9739    4.0582    0.0000 H   0  0  0  0  0  0  0  0  0  0  0  0
    7.6650    4.4176    0.0000 H   0  0  0  0  0  0  0  0  0  0  0  0
    7.3727    1.6356    0.0000 H   0  0  0  0  0  0  0  0  0  0  0  0
    6.0010    0.8388    0.0000 H   0  0  0  0  0  0  0  0  0  0  0  0
    4.3860    1.2314    0.0000 H   0  0  0  0  0  0  0  0  0  0  0  0
    3.9875    0.5411    0.0000 H   0  0  0  0  0  0  0  0  0  0  0  0
    4.8101   -0.9338    0.0000 H   0  0  0  0  0  0  0  0  0  0  0  0
    5.2087   -0.2436    0.0000 H   0  0  0  0  0  0  0  0  0  0  0  0
    2.3291   -2.0412    0.0000 H   0  0  0  0  0  0  0  0  0  0  0  0
    3.7321   -4.4712    0.0000 H   0  0  0  0  0  0  0  0  0  0  0  0
    5.1350   -3.6612    0.0000 H   0  0  0  0  0  0  0  0  0  0  0  0
    5.1350   -2.0412    0.0000 H   0  0  0  0  0  0  0  0  0  0  0  0
  1  2  2  0  0  0  0
  2  3  1  0  0  0  0
  3  4  1  0  0  0  0
  4  5  2  0  0  0  0
  5  6  1  0  0  0  0
  6  7  2  0  0  0  0
  3  7  1  0  0  0  0
  2  8  1  0  0  0  0
  8  9  1  0  0  0  0
  9 10  1  0  0  0  0
 10 11  1  0  0  0  0
 11 12  1  0  0  0  0
 12 13  2  0  0  0  0
 13 14  1  0  0  0  0
 14 15  1  0  0  0  0
 14 16  2  0  0  0  0
 16 17  1  0  0  0  0
 17 18  2  0  0  0  0
 12 18  1  0  0  0  0
  4 19  1  0  0  0  0
  5 20  1  0  0  0  0
  7 21  1  0  0  0  0
  8 22  1  0  0  0  0
  9 23  1  0  0  0  0
  9 24  1  0  0  0  0
 10 27  1  0  0  0  0
 10 27  1  0  0  0  0
 13 27  1  0  0  0  0
 16 28  1  0  0  0  0
 17 29  1  0  0  0  0
 18 30  1  0  0  0  0
M  END
> <UNIQUE_SMILES>
IC1=CC=CC(=C1)OCCNC(=O)[N]2C=CN=C2

> <USER_SUPPLIED_SMILES>
O=C(N1C=CN=C1)NCCOC2=CC(I)=CC=C2

$$$$
22
APtclcactv03162116352D 0   0.00000     0.00000    22
 
 34 35  0  0  0  0  0  0  0  0999 V2000
    4.5981    3.1488    0.0000 O   0  0  0  0  0  0  0  0  0  0  0  0
    5.4641    2.6488    0.0000 C   0  0  0  0  0  0  0  0  0  0  0  0
    6.3301    3.1488    0.0000 N   0  0  0  0  0  0  0  0  0  0  0  0
    6.4347    4.1433    0.0000 C   0  0  0  0  0  0  0  0  0  0  0  0
    7.4128    4.3512    0.0000 C   0  0  0  0  0  0  0  0  0  0  0  0
    7.9128    3.4852    0.0000 N   0  0  0  0  0  0  0  0  0  0  0  0
    7.2437    2.7420    0.0000 C   0  0  0  0  0  0  0  0  0  0  0  0
    5.4641    1.6488    0.0000 N   0  0  0  0  0  0  0  0  0  0  0  0
    4.5981    1.1488    0.0000 C   0  0  0  0  0  0  0  0  0  0  0  0
    4.5981    0.1488    0.0000 C   0  0  0  0  0  0  0  0  0  0  0  0
    3.7321   -0.3512    0.0000 O   0  0  0  0  0  0  0  0  0  0  0  0
    3.7321   -1.3512    0.0000 C   0  0  0  0  0  0  0  0  0  0  0  0
    2.8660   -1.8512    0.0000 C   0  0  0  0  0  0  0  0  0  0  0  0
    2.8660   -2.8512    0.0000 C   0  0  0  0  0  0  0  0  0  0  0  0
    2.0000   -3.3512    0.0000 O   0  0  0  0  0  0  0  0  0  0  0  0
    2.0000   -4.3512    0.0000 C   0  0  0  0  0  0  0  0  0  0  0  0
    3.7321   -3.3512    0.0000 C   0  0  0  0  0  0  0  0  0  0  0  0
    4.5981   -2.8512    0.0000 C   0  0  0  0  0  0  0  0  0  0  0  0
    4.5981   -1.8512    0.0000 C   0  0  0  0  0  0  0  0  0  0  0  0
    5.9739    4.5582    0.0000 H   0  0  0  0  0  0  0  0  0  0  0  0
    7.6650    4.9176    0.0000 H   0  0  0  0  0  0  0  0  0  0  0  0
    7.3727    2.1356    0.0000 H   0  0  0  0  0  0  0  0  0  0  0  0
    6.0010    1.3388    0.0000 H   0  0  0  0  0  0  0  0  0  0  0  0
    4.3860    1.7314    0.0000 H   0  0  0  0  0  0  0  0  0  0  0  0
    3.9875    1.0411    0.0000 H   0  0  0  0  0  0  0  0  0  0  0  0
    4.8101   -0.4338    0.0000 H   0  0  0  0  0  0  0  0  0  0  0  0
    5.2087    0.2764    0.0000 H   0  0  0  0  0  0  0  0  0  0  0  0
    2.3291   -1.5412    0.0000 H   0  0  0  0  0  0  0  0  0  0  0  0
    1.3800   -4.3512    0.0000 H   0  0  0  0  0  0  0  0  0  0  0  0
    2.0000   -4.9712    0.0000 H   0  0  0  0  0  0  0  0  0  0  0  0
    2.6200   -4.3512    0.0000 H   0  0  0  0  0  0  0  0  0  0  0  0
    3.7321   -3.9712    0.0000 H   0  0  0  0  0  0  0  0  0  0  0  0
    5.1350   -3.1612    0.0000 H   0  0  0  0  0  0  0  0  0  0  0  0
    5.1350   -1.5412    0.0000 H   0  0  0  0  0  0  0  0  0  0  0  0
  1  2  2  0  0  0  0
  2  3  1  0  0  0  0
  3  4  1  0  0  0  0
  4  5  2  0  0  0  0
  5  6  1  0  0  0  0
  6  7  2  0  0  0  0
  3  7  1  0  0  0  0
  2  8  1  0  0  0  0
  8  9  1  0  0  0  0
  9 10  1  0  0  0  0
 10 11  1  0  0  0  0
 11 12  1  0  0  0  0
 12 13  2  0  0  0  0
 13 14  1  0  0  0  0
 14 15  1  0  0  0  0
 15 16  1  0  0  0  0
 14 17  2  0  0  0  0
 17 18  1  0  0  0  0
 18 19  2  0  0  0  0
 12 19  1  0  0  0  0
  4 20  1  0  0  0  0
  5 21  1  0  0  0  0
  7 22  1  0  0  0  0
  8 23  1  0  0  0  0
  9 24  1  0  0  0  0
  9 27  1  0  0  0  0
 10 27  1  0  0  0  0
 10 27  1  0  0  0  0
 13 28  1  0  0  0  0
 16 29  1  0  0  0  0
 16 30  1  0  0  0  0
 16 31  1  0  0  0  0
 17 32  1  0  0  0  0
 18 33  1  0  0  0  0
 19 34  1  0  0  0  0
M  END
> <UNIQUE_SMILES>
COC1=CC=CC(=C1)OCCNC(=O)[N]2C=CN=C2

> <USER_SUPPLIED_SMILES>
O=C(N1C=CN=C1)NCCOC2=CC(OC)=CC=C2

$$$$
23
APtclcactv03162116352D 0   0.00000     0.00000    23
 
 32 33  0  0  0  0  0  0  0  0999 V2000
    2.0000   -1.4806    0.0000 O   0  0  0  0  0  0  0  0  0  0  0  0
    2.8660   -1.9806    0.0000 C   0  0  0  0  0  0  0  0  0  0  0  0
    2.8660   -2.9806    0.0000 N   0  0  0  0  0  0  0  0  0  0  0  0
    3.6750   -3.5684    0.0000 C   0  0  0  0  0  0  0  0  0  0  0  0
    3.3660   -4.5194    0.0000 C   0  0  0  0  0  0  0  0  0  0  0  0
    2.3660   -4.5194    0.0000 N   0  0  0  0  0  0  0  0  0  0  0  0
    2.0570   -3.5684    0.0000 C   0  0  0  0  0  0  0  0  0  0  0  0
    3.7321   -1.4806    0.0000 N   0  0  0  0  0  0  0  0  0  0  0  0
    3.7321   -0.4806    0.0000 C   0  0  0  0  0  0  0  0  0  0  0  0
    4.5981    0.0194    0.0000 C   0  0  0  0  0  0  0  0  0  0  0  0
    4.5981    1.0194    0.0000 O   0  0  0  0  0  0  0  0  0  0  0  0
    5.4641    1.5194    0.0000 C   0  0  0  0  0  0  0  0  0  0  0  0
    5.4641    2.5194    0.0000 C   0  0  0  0  0  0  0  0  0  0  0  0
    6.3301    3.0194    0.0000 C   0  0  0  0  0  0  0  0  0  0  0  0
    6.3301    4.0194    0.0000 N   0  3  0  0  0  0  0  0  0  0  0  0
    7.1962    4.5194    0.0000 O   0  5  0  0  0  0  0  0  0  0  0  0
    5.4641    4.5194    0.0000 O   0  0  0  0  0  0  0  0  0  0  0  0
    7.1962    2.5194    0.0000 C   0  0  0  0  0  0  0  0  0  0  0  0
    7.1962    1.5194    0.0000 C   0  0  0  0  0  0  0  0  0  0  0  0
    6.3301    1.0194    0.0000 C   0  0  0  0  0  0  0  0  0  0  0  0
    4.2747   -3.3768    0.0000 H   0  0  0  0  0  0  0  0  0  0  0  0
    3.7305   -5.0210    0.0000 H   0  0  0  0  0  0  0  0  0  0  0  0
    1.4674   -3.3768    0.0000 H   0  0  0  0  0  0  0  0  0  0  0  0
    4.2790   -1.7906    0.0000 H   0  0  0  0  0  0  0  0  0  0  0  0
    3.5200    0.1020    0.0000 H   0  0  0  0  0  0  0  0  0  0  0  0
    3.1215   -0.5882    0.0000 H   0  0  0  0  0  0  0  0  0  0  0  0
    4.8101   -0.5632    0.0000 H   0  0  0  0  0  0  0  0  0  0  0  0
    5.2087    0.1271    0.0000 H   0  0  0  0  0  0  0  0  0  0  0  0
    4.9272    2.8294    0.0000 H   0  0  0  0  0  0  0  0  0  0  0  0
    7.7331    2.8294    0.0000 H   0  0  0  0  0  0  0  0  0  0  0  0
    7.7331    1.2094    0.0000 H   0  0  0  0  0  0  0  0  0  0  0  0
    6.3301    0.3994    0.0000 H   0  0  0  0  0  0  0  0  0  0  0  0
  1  2  2  0  0  0  0
  2  3  1  0  0  0  0
  3  4  1  0  0  0  0
  4  5  2  0  0  0  0
  5  6  1  0  0  0  0
  6  7  2  0  0  0  0
  3  7  1  0  0  0  0
  2  8  1  0  0  0  0
  8  9  1  0  0  0  0
  9 10  1  0  0  0  0
 10 11  1  0  0  0  0
 11 12  1  0  0  0  0
 12 13  2  0  0  0  0
 13 14  1  0  0  0  0
 14 15  1  0  0  0  0
 15 16  1  0  0  0  0
 15 17  2  0  0  0  0
 14 18  2  0  0  0  0
 18 19  1  0  0  0  0
 19 20  2  0  0  0  0
 12 20  1  0  0  0  0
  4 21  1  0  0  0  0
  5 22  1  0  0  0  0
  7 23  1  0  0  0  0
  8 24  1  0  0  0  0
  9 27  1  0  0  0  0
  9 27  1  0  0  0  0
 10 27  1  0  0  0  0
 10 28  1  0  0  0  0
 13 29  1  0  0  0  0
 18 30  1  0  0  0  0
 19 31  1  0  0  0  0
 20 32  1  0  0  0  0
M  CHG  2  15   1  16  -1
M  END
> <UNIQUE_SMILES>
[O-][N+](=O)C1=CC=CC(=C1)OCCNC(=O)[N]2C=CN=C2

> <USER_SUPPLIED_SMILES>
O=C(N1C=CN=C1)NCCOC2=CC([N+]([O-])=O)=CC=C2

$$$$
24
APtclcactv03162116352D 0   0.00000     0.00000    24
 
 33 34  0  0  0  0  0  0  0  0999 V2000
    2.0000   -1.7306    0.0000 O   0  0  0  0  0  0  0  0  0  0  0  0
    2.8660   -2.2306    0.0000 C   0  0  0  0  0  0  0  0  0  0  0  0
    2.8660   -3.2306    0.0000 N   0  0  0  0  0  0  0  0  0  0  0  0
    2.0570   -3.8184    0.0000 C   0  0  0  0  0  0  0  0  0  0  0  0
    2.3660   -4.7694    0.0000 C   0  0  0  0  0  0  0  0  0  0  0  0
    3.3660   -4.7694    0.0000 N   0  0  0  0  0  0  0  0  0  0  0  0
    3.6750   -3.8184    0.0000 C   0  0  0  0  0  0  0  0  0  0  0  0
    3.7321   -1.7306    0.0000 N   0  0  0  0  0  0  0  0  0  0  0  0
    3.7321   -0.7306    0.0000 C   0  0  0  0  0  0  0  0  0  0  0  0
    4.5981   -0.2306    0.0000 C   0  0  0  0  0  0  0  0  0  0  0  0
    4.5981    0.7694    0.0000 O   0  0  0  0  0  0  0  0  0  0  0  0
    5.4641    1.2794    0.0000 C   0  0  0  0  0  0  0  0  0  0  0  0
    5.4641    2.2794    0.0000 C   0  0  0  0  0  0  0  0  0  0  0  0
    6.3301    2.7694    0.0000 C   0  0  0  0  0  0  0  0  0  0  0  0
    6.3301    3.7694    0.0000 C   0  0  0  0  0  0  0  0  0  0  0  0
    6.3301    4.7694    0.0000 F   0  0  0  0  0  0  0  0  0  0  0  0
    7.3301    3.7694    0.0000 F   0  0  0  0  0  0  0  0  0  0  0  0
    5.3301    3.7694    0.0000 F   0  0  0  0  0  0  0  0  0  0  0  0
    7.1962    2.2794    0.0000 C   0  0  0  0  0  0  0  0  0  0  0  0
    7.1962    1.2794    0.0000 C   0  0  0  0  0  0  0  0  0  0  0  0
    6.3301    0.7694    0.0000 C   0  0  0  0  0  0  0  0  0  0  0  0
    1.4674   -3.6278    0.0000 H   0  0  0  0  0  0  0  0  0  0  0  0
    2.0016   -5.2710    0.0000 H   0  0  0  0  0  0  0  0  0  0  0  0
    4.2747   -3.6278    0.0000 H   0  0  0  0  0  0  0  0  0  0  0  0
    4.2790   -2.0406    0.0000 H   0  0  0  0  0  0  0  0  0  0  0  0
    3.5200   -0.1480    0.0000 H   0  0  0  0  0  0  0  0  0  0  0  0
    3.1215   -0.8382    0.0000 H   0  0  0  0  0  0  0  0  0  0  0  0
    4.8101   -0.8132    0.0000 H   0  0  0  0  0  0  0  0  0  0  0  0
    5.2087   -0.1229    0.0000 H   0  0  0  0  0  0  0  0  0  0  0  0
    4.9272    2.5794    0.0000 H   0  0  0  0  0  0  0  0  0  0  0  0
    7.7331    2.5794    0.0000 H   0  0  0  0  0  0  0  0  0  0  0  0
    7.7331    0.9594    0.0000 H   0  0  0  0  0  0  0  0  0  0  0  0
    6.3301    0.1494    0.0000 H   0  0  0  0  0  0  0  0  0  0  0  0
  1  2  2  0  0  0  0
  2  3  1  0  0  0  0
  3  4  1  0  0  0  0
  4  5  2  0  0  0  0
  5  6  1  0  0  0  0
  6  7  2  0  0  0  0
  3  7  1  0  0  0  0
  2  8  1  0  0  0  0
  8  9  1  0  0  0  0
  9 10  1  0  0  0  0
 10 11  1  0  0  0  0
 11 12  1  0  0  0  0
 12 13  2  0  0  0  0
 13 14  1  0  0  0  0
 14 15  1  0  0  0  0
 15 16  1  0  0  0  0
 15 17  1  0  0  0  0
 15 18  1  0  0  0  0
 14 19  2  0  0  0  0
 19 20  1  0  0  0  0
 20 21  2  0  0  0  0
 12 21  1  0  0  0  0
  4 22  1  0  0  0  0
  5 23  1  0  0  0  0
  7 24  1  0  0  0  0
  8 27  1  0  0  0  0
  9 27  1  0  0  0  0
  9 27  1  0  0  0  0
 10 28  1  0  0  0  0
 10 29  1  0  0  0  0
 13 30  1  0  0  0  0
 19 31  1  0  0  0  0
 20 32  1  0  0  0  0
 21 33  1  0  0  0  0
M  END
> <UNIQUE_SMILES>
FC(F)(F)C1=CC=CC(=C1)OCCNC(=O)[N]2C=CN=C2

> <USER_SUPPLIED_SMILES>
O=C(N1C=CN=C1)NCCOC2=CC(C(F)(F)F)=CC=C2

$$$$
27
APtclcactv03162116352D 0   0.00000     0.00000    27
 
 31 32  0  0  0  0  0  0  0  0999 V2000
    5.4641    2.8988    0.0000 O   0  0  0  0  0  0  0  0  0  0  0  0
    6.3301    2.3988    0.0000 C   0  0  0  0  0  0  0  0  0  0  0  0
    7.1962    2.8988    0.0000 N   0  0  0  0  0  0  0  0  0  0  0  0
    7.3007    3.8933    0.0000 C   0  0  0  0  0  0  0  0  0  0  0  0
    8.2788    4.1012    0.0000 C   0  0  0  0  0  0  0  0  0  0  0  0
    8.7788    3.2352    0.0000 N   0  0  0  0  0  0  0  0  0  0  0  0
    8.1097    2.4920    0.0000 C   0  0  0  0  0  0  0  0  0  0  0  0
    6.3301    1.3988    0.0000 N   0  0  0  0  0  0  0  0  0  0  0  0
    5.4641    0.8988    0.0000 C   0  0  0  0  0  0  0  0  0  0  0  0
    5.4641   -0.1012    0.0000 C   0  0  0  0  0  0  0  0  0  0  0  0
    4.5981   -0.6012    0.0000 O   0  0  0  0  0  0  0  0  0  0  0  0
    4.5981   -1.6012    0.0000 C   0  0  0  0  0  0  0  0  0  0  0  0
    3.7321   -2.1012    0.0000 C   0  0  0  0  0  0  0  0  0  0  0  0
    3.7321   -3.1012    0.0000 C   0  0  0  0  0  0  0  0  0  0  0  0
    2.8660   -3.6012    0.0000 C   0  0  0  0  0  0  0  0  0  0  0  0
    2.0000   -4.1012    0.0000 N   0  0  0  0  0  0  0  0  0  0  0  0
    4.5981   -3.6012    0.0000 C   0  0  0  0  0  0  0  0  0  0  0  0
    5.4641   -3.1012    0.0000 C   0  0  0  0  0  0  0  0  0  0  0  0
    5.4641   -2.1012    0.0000 C   0  0  0  0  0  0  0  0  0  0  0  0
    6.8399    4.3082    0.0000 H   0  0  0  0  0  0  0  0  0  0  0  0
    8.5310    4.6676    0.0000 H   0  0  0  0  0  0  0  0  0  0  0  0
    8.2386    1.8856    0.0000 H   0  0  0  0  0  0  0  0  0  0  0  0
    6.8671    1.0888    0.0000 H   0  0  0  0  0  0  0  0  0  0  0  0
    5.2720    1.4814    0.0000 H   0  0  0  0  0  0  0  0  0  0  0  0
    4.8535    0.7911    0.0000 H   0  0  0  0  0  0  0  0  0  0  0  0
    5.6762   -0.6838    0.0000 H   0  0  0  0  0  0  0  0  0  0  0  0
    6.0747    0.0064    0.0000 H   0  0  0  0  0  0  0  0  0  0  0  0
    3.1951   -1.7912    0.0000 H   0  0  0  0  0  0  0  0  0  0  0  0
    4.5981   -4.2212    0.0000 H   0  0  0  0  0  0  0  0  0  0  0  0
    6.0010   -3.4112    0.0000 H   0  0  0  0  0  0  0  0  0  0  0  0
    6.0010   -1.7912    0.0000 H   0  0  0  0  0  0  0  0  0  0  0  0
  1  2  2  0  0  0  0
  2  3  1  0  0  0  0
  3  4  1  0  0  0  0
  4  5  2  0  0  0  0
  5  6  1  0  0  0  0
  6  7  2  0  0  0  0
  3  7  1  0  0  0  0
  2  8  1  0  0  0  0
  8  9  1  0  0  0  0
  9 10  1  0  0  0  0
 10 11  1  0  0  0  0
 11 12  1  0  0  0  0
 12 13  2  0  0  0  0
 13 14  1  0  0  0  0
 14 15  1  0  0  0  0
 15 16  3  0  0  0  0
 14 17  2  0  0  0  0
 17 18  1  0  0  0  0
 18 19  2  0  0  0  0
 12 19  1  0  0  0  0
  4 20  1  0  0  0  0
  5 21  1  0  0  0  0
  7 22  1  0  0  0  0
  8 23  1  0  0  0  0
  9 24  1  0  0  0  0
  9 27  1  0  0  0  0
 10 27  1  0  0  0  0
 10 27  1  0  0  0  0
 13 28  1  0  0  0  0
 17 29  1  0  0  0  0
 18 30  1  0  0  0  0
 19 31  1  0  0  0  0
M  END
> <UNIQUE_SMILES>
O=C(NCCOC1=CC(=CC=C1)C#N)[N]2C=CN=C2

> <USER_SUPPLIED_SMILES>
O=C(N1C=CN=C1)NCCOC2=CC(C#N)=CC=C2

$$$$
b_36
APtclcactv03162116352D 0   0.00000     0.00000    27
 
 30 31  0  0  0  0  0  0  0  0999 V2000
    4.5981    2.6488    0.0000 O   0  0  0  0  0  0  0  0  0  0  0  0
    5.4641    2.1488    0.0000 C   0  0  0  0  0  0  0  0  0  0  0  0
    6.3301    2.6488    0.0000 N   0  0  0  0  0  0  0  0  0  0  0  0
    7.2437    2.2420    0.0000 C   0  0  0  0  0  0  0  0  0  0  0  0
    7.9128    2.9852    0.0000 C   0  0  0  0  0  0  0  0  0  0  0  0
    7.4128    3.8512    0.0000 N   0  0  0  0  0  0  0  0  0  0  0  0
    6.4347    3.6433    0.0000 C   0  0  0  0  0  0  0  0  0  0  0  0
    5.4641    1.1488    0.0000 N   0  0  0  0  0  0  0  0  0  0  0  0
    4.5981    0.6488    0.0000 C   0  0  0  0  0  0  0  0  0  0  0  0
    4.5981   -0.3512    0.0000 C   0  0  0  0  0  0  0  0  0  0  0  0
    3.7321   -0.8512    0.0000 O   0  0  0  0  0  0  0  0  0  0  0  0
    3.7321   -1.8512    0.0000 C   0  0  0  0  0  0  0  0  0  0  0  0
    2.8660   -2.3512    0.0000 C   0  0  0  0  0  0  0  0  0  0  0  0
    2.0000   -1.8512    0.0000 Br  0  0  0  0  0  0  0  0  0  0  0  0
    2.8660   -3.3512    0.0000 C   0  0  0  0  0  0  0  0  0  0  0  0
    3.7321   -3.8512    0.0000 C   0  0  0  0  0  0  0  0  0  0  0  0
    4.5981   -3.3512    0.0000 C   0  0  0  0  0  0  0  0  0  0  0  0
    4.5981   -2.3512    0.0000 C   0  0  0  0  0  0  0  0  0  0  0  0
    7.3727    1.6356    0.0000 H   0  0  0  0  0  0  0  0  0  0  0  0
    8.5294    2.9204    0.0000 H   0  0  0  0  0  0  0  0  0  0  0  0
    5.9739    4.0582    0.0000 H   0  0  0  0  0  0  0  0  0  0  0  0
    6.0010    0.8388    0.0000 H   0  0  0  0  0  0  0  0  0  0  0  0
    4.3860    1.2314    0.0000 H   0  0  0  0  0  0  0  0  0  0  0  0
    3.9875    0.5411    0.0000 H   0  0  0  0  0  0  0  0  0  0  0  0
    4.8101   -0.9338    0.0000 H   0  0  0  0  0  0  0  0  0  0  0  0
    5.2087   -0.2436    0.0000 H   0  0  0  0  0  0  0  0  0  0  0  0
    2.3291   -3.6612    0.0000 H   0  0  0  0  0  0  0  0  0  0  0  0
    3.7321   -4.4712    0.0000 H   0  0  0  0  0  0  0  0  0  0  0  0
    5.1350   -3.6612    0.0000 H   0  0  0  0  0  0  0  0  0  0  0  0
    5.1350   -2.0412    0.0000 H   0  0  0  0  0  0  0  0  0  0  0  0
  1  2  2  0  0  0  0
  2  3  1  0  0  0  0
  3  4  1  0  0  0  0
  4  5  2  0  0  0  0
  5  6  1  0  0  0  0
  6  7  2  0  0  0  0
  3  7  1  0  0  0  0
  2  8  1  0  0  0  0
  8  9  1  0  0  0  0
  9 10  1  0  0  0  0
 10 11  1  0  0  0  0
 11 12  1  0  0  0  0
 12 13  2  0  0  0  0
 13 14  1  0  0  0  0
 13 15  1  0  0  0  0
 15 16  2  0  0  0  0
 16 17  1  0  0  0  0
 17 18  2  0  0  0  0
 12 18  1  0  0  0  0
  4 19  1  0  0  0  0
  5 20  1  0  0  0  0
  7 21  1  0  0  0  0
  8 22  1  0  0  0  0
  9 23  1  0  0  0  0
  9 24  1  0  0  0  0
 10 27  1  0  0  0  0
 10 27  1  0  0  0  0
 15 27  1  0  0  0  0
 16 28  1  0  0  0  0
 17 29  1  0  0  0  0
 18 30  1  0  0  0  0
M  END
> <UNIQUE_SMILES>
BrC1=C(OCCNC(=O)[N]2C=CN=C2)C=CC=C1

> <USER_SUPPLIED_SMILES>
O=C(N1C=CN=C1)NCCOC2=C(Br)C=CC=C2

$$$$
b_37
APtclcactv03162116352D 0   0.00000     0.00000    27
 
 30 31  0  0  0  0  0  0  0  0999 V2000
    3.7321    3.1488    0.0000 O   0  0  0  0  0  0  0  0  0  0  0  0
    4.5981    2.6488    0.0000 C   0  0  0  0  0  0  0  0  0  0  0  0
    5.4641    3.1488    0.0000 N   0  0  0  0  0  0  0  0  0  0  0  0
    5.5686    4.1433    0.0000 C   0  0  0  0  0  0  0  0  0  0  0  0
    6.5468    4.3512    0.0000 C   0  0  0  0  0  0  0  0  0  0  0  0
    7.0468    3.4852    0.0000 N   0  0  0  0  0  0  0  0  0  0  0  0
    6.3776    2.7420    0.0000 C   0  0  0  0  0  0  0  0  0  0  0  0
    4.5981    1.6488    0.0000 N   0  0  0  0  0  0  0  0  0  0  0  0
    3.7321    1.1488    0.0000 C   0  0  0  0  0  0  0  0  0  0  0  0
    3.7321    0.1488    0.0000 C   0  0  0  0  0  0  0  0  0  0  0  0
    2.8660   -0.3512    0.0000 O   0  0  0  0  0  0  0  0  0  0  0  0
    2.8660   -1.3512    0.0000 C   0  0  0  0  0  0  0  0  0  0  0  0
    2.0000   -1.8512    0.0000 C   0  0  0  0  0  0  0  0  0  0  0  0
    2.0000   -2.8512    0.0000 C   0  0  0  0  0  0  0  0  0  0  0  0
    2.8660   -3.3512    0.0000 C   0  0  0  0  0  0  0  0  0  0  0  0
    2.8660   -4.3512    0.0000 Br  0  0  0  0  0  0  0  0  0  0  0  0
    3.7321   -2.8512    0.0000 C   0  0  0  0  0  0  0  0  0  0  0  0
    3.7321   -1.8512    0.0000 C   0  0  0  0  0  0  0  0  0  0  0  0
    5.1079    4.5582    0.0000 H   0  0  0  0  0  0  0  0  0  0  0  0
    6.7990    4.9176    0.0000 H   0  0  0  0  0  0  0  0  0  0  0  0
    6.5066    2.1356    0.0000 H   0  0  0  0  0  0  0  0  0  0  0  0
    5.1350    1.3388    0.0000 H   0  0  0  0  0  0  0  0  0  0  0  0
    3.5200    1.7314    0.0000 H   0  0  0  0  0  0  0  0  0  0  0  0
    3.1215    1.0411    0.0000 H   0  0  0  0  0  0  0  0  0  0  0  0
    3.9441   -0.4338    0.0000 H   0  0  0  0  0  0  0  0  0  0  0  0
    4.3427    0.2764    0.0000 H   0  0  0  0  0  0  0  0  0  0  0  0
    1.4631   -1.5412    0.0000 H   0  0  0  0  0  0  0  0  0  0  0  0
    1.4631   -3.1612    0.0000 H   0  0  0  0  0  0  0  0  0  0  0  0
    4.2790   -3.1612    0.0000 H   0  0  0  0  0  0  0  0  0  0  0  0
    4.2790   -1.5412    0.0000 H   0  0  0  0  0  0  0  0  0  0  0  0
  1  2  2  0  0  0  0
  2  3  1  0  0  0  0
  3  4  1  0  0  0  0
  4  5  2  0  0  0  0
  5  6  1  0  0  0  0
  6  7  2  0  0  0  0
  3  7  1  0  0  0  0
  2  8  1  0  0  0  0
  8  9  1  0  0  0  0
  9 10  1  0  0  0  0
 10 11  1  0  0  0  0
 11 12  1  0  0  0  0
 12 13  2  0  0  0  0
 13 14  1  0  0  0  0
 14 15  2  0  0  0  0
 15 16  1  0  0  0  0
 15 17  1  0  0  0  0
 17 18  2  0  0  0  0
 12 18  1  0  0  0  0
  4 19  1  0  0  0  0
  5 20  1  0  0  0  0
  7 21  1  0  0  0  0
  8 22  1  0  0  0  0
  9 23  1  0  0  0  0
  9 24  1  0  0  0  0
 10 27  1  0  0  0  0
 10 27  1  0  0  0  0
 13 27  1  0  0  0  0
 14 28  1  0  0  0  0
 17 29  1  0  0  0  0
 18 30  1  0  0  0  0
M  END
> <UNIQUE_SMILES>
BrC1=CC=C(OCCNC(=O)[N]2C=CN=C2)C=C1

> <USER_SUPPLIED_SMILES>
O=C(N1C=CN=C1)NCCOC2=CC=C(Br)C=C2

$$$$
28
APtclcactv03162116352D 0   0.00000     0.00000    28
 
 33 34  0  0  0  0  0  0  0  0999 V2000
    5.3147   -3.6488    0.0000 O   0  0  0  0  0  0  0  0  0  0  0  0
    4.4487   -3.1488    0.0000 C   0  0  0  0  0  0  0  0  0  0  0  0
    3.5827   -3.6488    0.0000 N   0  0  0  0  0  0  0  0  0  0  0  0
    2.6691   -3.2420    0.0000 C   0  0  0  0  0  0  0  0  0  0  0  0
    2.0000   -3.9852    0.0000 C   0  0  0  0  0  0  0  0  0  0  0  0
    2.5000   -4.8512    0.0000 N   0  0  0  0  0  0  0  0  0  0  0  0
    3.4781   -4.6433    0.0000 C   0  0  0  0  0  0  0  0  0  0  0  0
    4.4487   -2.1488    0.0000 N   0  0  0  0  0  0  0  0  0  0  0  0
    5.3147   -1.6488    0.0000 C   0  0  0  0  0  0  0  0  0  0  0  0
    5.3147   -0.6488    0.0000 C   0  0  0  0  0  0  0  0  0  0  0  0
    6.1808   -0.1488    0.0000 O   0  0  0  0  0  0  0  0  0  0  0  0
    6.1808    0.8512    0.0000 C   0  0  0  0  0  0  0  0  0  0  0  0
    7.0468    1.3512    0.0000 C   0  0  0  0  0  0  0  0  0  0  0  0
    7.0468    2.3512    0.0000 C   0  0  0  0  0  0  0  0  0  0  0  0
    6.1808    2.8512    0.0000 C   0  0  0  0  0  0  0  0  0  0  0  0
    6.1808    3.8512    0.0000 C   0  0  0  0  0  0  0  0  0  0  0  0
    6.1808    4.8512    0.0000 F   0  0  0  0  0  0  0  0  0  0  0  0
    7.1808    3.8512    0.0000 F   0  0  0  0  0  0  0  0  0  0  0  0
    5.1808    3.8512    0.0000 F   0  0  0  0  0  0  0  0  0  0  0  0
    5.3147    2.3512    0.0000 C   0  0  0  0  0  0  0  0  0  0  0  0
    5.3147    1.3512    0.0000 C   0  0  0  0  0  0  0  0  0  0  0  0
    2.5402   -2.6356    0.0000 H   0  0  0  0  0  0  0  0  0  0  0  0
    1.3834   -3.9204    0.0000 H   0  0  0  0  0  0  0  0  0  0  0  0
    3.9389   -5.0582    0.0000 H   0  0  0  0  0  0  0  0  0  0  0  0
    3.9118   -1.8388    0.0000 H   0  0  0  0  0  0  0  0  0  0  0  0
    5.5278   -2.2314    0.0000 H   0  0  0  0  0  0  0  0  0  0  0  0
    5.9273   -1.5411    0.0000 H   0  0  0  0  0  0  0  0  0  0  0  0
    5.1027   -0.0662    0.0000 H   0  0  0  0  0  0  0  0  0  0  0  0
    4.7041   -0.7564    0.0000 H   0  0  0  0  0  0  0  0  0  0  0  0
    7.5837    1.0412    0.0000 H   0  0  0  0  0  0  0  0  0  0  0  0
    7.5837    2.6612    0.0000 H   0  0  0  0  0  0  0  0  0  0  0  0
    4.7778    2.6612    0.0000 H   0  0  0  0  0  0  0  0  0  0  0  0
    4.7778    1.0412    0.0000 H   0  0  0  0  0  0  0  0  0  0  0  0
  1  2  2  0  0  0  0
  2  3  1  0  0  0  0
  3  4  1  0  0  0  0
  4  5  2  0  0  0  0
  5  6  1  0  0  0  0
  6  7  2  0  0  0  0
  3  7  1  0  0  0  0
  2  8  1  0  0  0  0
  8  9  1  0  0  0  0
  9 10  1  0  0  0  0
 10 11  1  0  0  0  0
 11 12  1  0  0  0  0
 12 13  2  0  0  0  0
 13 14  1  0  0  0  0
 14 15  2  0  0  0  0
 15 16  1  0  0  0  0
 16 17  1  0  0  0  0
 16 18  1  0  0  0  0
 16 19  1  0  0  0  0
 15 20  1  0  0  0  0
 20 21  2  0  0  0  0
 12 21  1  0  0  0  0
  4 22  1  0  0  0  0
  5 23  1  0  0  0  0
  7 24  1  0  0  0  0
  8 27  1  0  0  0  0
  9 27  1  0  0  0  0
  9 27  1  0  0  0  0
 10 28  1  0  0  0  0
 10 29  1  0  0  0  0
 13 30  1  0  0  0  0
 14 31  1  0  0  0  0
 20 32  1  0  0  0  0
 21 33  1  0  0  0  0
M  END
> <UNIQUE_SMILES>
FC(F)(F)C1=CC=C(OCCNC(=O)[N]2C=CN=C2)C=C1

> <USER_SUPPLIED_SMILES>
O=C(N1C=CN=C1)NCCOC2=CC=C(C(F)(F)F)C=C2

$$$$
29
APtclcactv03162116352D 0   0.00000     0.00000    29
 
 30 31  0  0  0  0  0  0  0  0999 V2000
    4.5981    3.1488    0.0000 O   0  0  0  0  0  0  0  0  0  0  0  0
    5.4641    2.6488    0.0000 C   0  0  0  0  0  0  0  0  0  0  0  0
    6.3301    3.1488    0.0000 N   0  0  0  0  0  0  0  0  0  0  0  0
    6.4347    4.1433    0.0000 C   0  0  0  0  0  0  0  0  0  0  0  0
    7.4128    4.3512    0.0000 C   0  0  0  0  0  0  0  0  0  0  0  0
    7.9128    3.4852    0.0000 N   0  0  0  0  0  0  0  0  0  0  0  0
    7.2437    2.7420    0.0000 C   0  0  0  0  0  0  0  0  0  0  0  0
    5.4641    1.6488    0.0000 N   0  0  0  0  0  0  0  0  0  0  0  0
    4.5981    1.1488    0.0000 C   0  0  0  0  0  0  0  0  0  0  0  0
    4.5981    0.1488    0.0000 C   0  0  0  0  0  0  0  0  0  0  0  0
    3.7321   -0.3512    0.0000 O   0  0  0  0  0  0  0  0  0  0  0  0
    3.7321   -1.3512    0.0000 C   0  0  0  0  0  0  0  0  0  0  0  0
    2.8660   -1.8512    0.0000 C   0  0  0  0  0  0  0  0  0  0  0  0
    2.8660   -2.8512    0.0000 C   0  0  0  0  0  0  0  0  0  0  0  0
    2.0000   -3.3512    0.0000 F   0  0  0  0  0  0  0  0  0  0  0  0
    3.7321   -3.3512    0.0000 C   0  0  0  0  0  0  0  0  0  0  0  0
    3.7321   -4.3512    0.0000 F   0  0  0  0  0  0  0  0  0  0  0  0
    4.5981   -2.8512    0.0000 C   0  0  0  0  0  0  0  0  0  0  0  0
    4.5981   -1.8512    0.0000 C   0  0  0  0  0  0  0  0  0  0  0  0
    5.9739    4.5582    0.0000 H   0  0  0  0  0  0  0  0  0  0  0  0
    7.6650    4.9176    0.0000 H   0  0  0  0  0  0  0  0  0  0  0  0
    7.3727    2.1356    0.0000 H   0  0  0  0  0  0  0  0  0  0  0  0
    6.0010    1.3388    0.0000 H   0  0  0  0  0  0  0  0  0  0  0  0
    4.3860    1.7314    0.0000 H   0  0  0  0  0  0  0  0  0  0  0  0
    3.9875    1.0411    0.0000 H   0  0  0  0  0  0  0  0  0  0  0  0
    4.8101   -0.4338    0.0000 H   0  0  0  0  0  0  0  0  0  0  0  0
    5.2087    0.2764    0.0000 H   0  0  0  0  0  0  0  0  0  0  0  0
    2.3291   -1.5412    0.0000 H   0  0  0  0  0  0  0  0  0  0  0  0
    5.1350   -3.1612    0.0000 H   0  0  0  0  0  0  0  0  0  0  0  0
    5.1350   -1.5412    0.0000 H   0  0  0  0  0  0  0  0  0  0  0  0
  1  2  2  0  0  0  0
  2  3  1  0  0  0  0
  3  4  1  0  0  0  0
  4  5  2  0  0  0  0
  5  6  1  0  0  0  0
  6  7  2  0  0  0  0
  3  7  1  0  0  0  0
  2  8  1  0  0  0  0
  8  9  1  0  0  0  0
  9 10  1  0  0  0  0
 10 11  1  0  0  0  0
 11 12  1  0  0  0  0
 12 13  2  0  0  0  0
 13 14  1  0  0  0  0
 14 15  1  0  0  0  0
 14 16  2  0  0  0  0
 16 17  1  0  0  0  0
 16 18  1  0  0  0  0
 18 19  2  0  0  0  0
 12 19  1  0  0  0  0
  4 20  1  0  0  0  0
  5 21  1  0  0  0  0
  7 22  1  0  0  0  0
  8 23  1  0  0  0  0
  9 24  1  0  0  0  0
  9 27  1  0  0  0  0
 10 27  1  0  0  0  0
 10 27  1  0  0  0  0
 13 28  1  0  0  0  0
 18 29  1  0  0  0  0
 19 30  1  0  0  0  0
M  END
> <UNIQUE_SMILES>
FC1=C(F)C=C(OCCNC(=O)[N]2C=CN=C2)C=C1

> <USER_SUPPLIED_SMILES>
O=C(N1C=CN=C1)NCCOC2=CC(F)=C(F)C=C2

$$$$
30
APtclcactv03162116352D 0   0.00000     0.00000    30
 
 36 38  0  0  0  0  0  0  0  0999 V2000
    4.4487   -1.5173    0.0000 O   0  0  0  0  0  0  0  0  0  0  0  0
    4.4487   -0.5173    0.0000 C   0  0  0  0  0  0  0  0  0  0  0  0
    3.5827   -0.0173    0.0000 N   0  0  0  0  0  0  0  0  0  0  0  0
    3.4781    0.9772    0.0000 C   0  0  0  0  0  0  0  0  0  0  0  0
    2.5000    1.1851    0.0000 C   0  0  0  0  0  0  0  0  0  0  0  0
    2.0000    0.3191    0.0000 N   0  0  0  0  0  0  0  0  0  0  0  0
    2.6691   -0.4241    0.0000 C   0  0  0  0  0  0  0  0  0  0  0  0
    5.3147   -0.0173    0.0000 N   0  0  0  0  0  0  0  0  0  0  0  0
    6.1808   -0.5173    0.0000 C   0  0  0  0  0  0  0  0  0  0  0  0
    7.0468   -0.0173    0.0000 C   0  0  0  0  0  0  0  0  0  0  0  0
    7.9128   -0.5173    0.0000 O   0  0  0  0  0  0  0  0  0  0  0  0
    8.7788   -0.0173    0.0000 C   0  0  0  0  0  0  0  0  0  0  0  0
    9.6449   -0.5173    0.0000 C   0  0  0  0  0  0  0  0  0  0  0  0
    9.6449   -1.5173    0.0000 Br  0  0  0  0  0  0  0  0  0  0  0  0
   10.5109   -0.0173    0.0000 C   0  0  0  0  0  0  0  0  0  0  0  0
   10.5109    0.9827    0.0000 C   0  0  0  0  0  0  0  0  0  0  0  0
   11.4048    1.5173    0.0000 C   0  0  0  0  0  0  0  0  0  0  0  0
   12.3109    1.0035    0.0000 C   0  0  0  0  0  0  0  0  0  0  0  0
   12.3109   -0.0381    0.0000 C   0  0  0  0  0  0  0  0  0  0  0  0
   11.4048   -0.5520    0.0000 C   0  0  0  0  0  0  0  0  0  0  0  0
    9.6449    1.4827    0.0000 C   0  0  0  0  0  0  0  0  0  0  0  0
    8.7788    0.9827    0.0000 C   0  0  0  0  0  0  0  0  0  0  0  0
    3.9389    1.3921    0.0000 H   0  0  0  0  0  0  0  0  0  0  0  0
    2.2478    1.7515    0.0000 H   0  0  0  0  0  0  0  0  0  0  0  0
    2.5402   -1.0305    0.0000 H   0  0  0  0  0  0  0  0  0  0  0  0
    5.3147    0.6027    0.0000 H   0  0  0  0  0  0  0  0  0  0  0  0
    5.7822   -0.9923    0.0000 H   0  0  0  0  0  0  0  0  0  0  0  0
    6.5793   -0.9923    0.0000 H   0  0  0  0  0  0  0  0  0  0  0  0
    7.4453    0.4576    0.0000 H   0  0  0  0  0  0  0  0  0  0  0  0
    6.6482    0.4576    0.0000 H   0  0  0  0  0  0  0  0  0  0  0  0
   11.3977    2.1373    0.0000 H   0  0  0  0  0  0  0  0  0  0  0  0
   12.8466    1.3156    0.0000 H   0  0  0  0  0  0  0  0  0  0  0  0
   12.8466   -0.3502    0.0000 H   0  0  0  0  0  0  0  0  0  0  0  0
   11.3977   -1.1720    0.0000 H   0  0  0  0  0  0  0  0  0  0  0  0
    9.6449    2.1027    0.0000 H   0  0  0  0  0  0  0  0  0  0  0  0
    8.2419    1.2927    0.0000 H   0  0  0  0  0  0  0  0  0  0  0  0
  1  2  2  0  0  0  0
  2  3  1  0  0  0  0
  3  4  1  0  0  0  0
  4  5  2  0  0  0  0
  5  6  1  0  0  0  0
  6  7  2  0  0  0  0
  3  7  1  0  0  0  0
  2  8  1  0  0  0  0
  8  9  1  0  0  0  0
  9 10  1  0  0  0  0
 10 11  1  0  0  0  0
 11 12  1  0  0  0  0
 12 13  2  0  0  0  0
 13 14  1  0  0  0  0
 13 15  1  0  0  0  0
 15 16  2  0  0  0  0
 16 17  1  0  0  0  0
 17 18  2  0  0  0  0
 18 19  1  0  0  0  0
 19 20  2  0  0  0  0
 15 20  1  0  0  0  0
 16 21  1  0  0  0  0
 21 22  2  0  0  0  0
 12 22  1  0  0  0  0
  4 23  1  0  0  0  0
  5 24  1  0  0  0  0
  7 27  1  0  0  0  0
  8 27  1  0  0  0  0
  9 27  1  0  0  0  0
  9 28  1  0  0  0  0
 10 29  1  0  0  0  0
 10 30  1  0  0  0  0
 17 31  1  0  0  0  0
 18 32  1  0  0  0  0
 19 33  1  0  0  0  0
 20 34  1  0  0  0  0
 21 35  1  0  0  0  0
 22 36  1  0  0  0  0
M  END
> <UNIQUE_SMILES>
BrC1=C(OCCNC(=O)[N]2C=CN=C2)C=CC3=C1C=CC=C3

> <USER_SUPPLIED_SMILES>
O=C(N1C=CN=C1)NCCOC2=C(Br)C3=C(C=CC=C3)C=C2

$$$$
31
APtclcactv03162116352D 0   0.00000     0.00000    31
 
 36 38  0  0  0  0  0  0  0  0999 V2000
    5.3147   -2.6661    0.0000 O   0  0  0  0  0  0  0  0  0  0  0  0
    4.4487   -2.1661    0.0000 C   0  0  0  0  0  0  0  0  0  0  0  0
    3.5827   -2.6661    0.0000 N   0  0  0  0  0  0  0  0  0  0  0  0
    2.6691   -2.2794    0.0000 C   0  0  0  0  0  0  0  0  0  0  0  0
    2.0000   -3.0027    0.0000 C   0  0  0  0  0  0  0  0  0  0  0  0
    2.5000   -3.8685    0.0000 N   0  0  0  0  0  0  0  0  0  0  0  0
    3.4781   -3.6606    0.0000 C   0  0  0  0  0  0  0  0  0  0  0  0
    4.4487   -1.1661    0.0000 N   0  0  0  0  0  0  0  0  0  0  0  0
    5.3147   -0.6661    0.0000 C   0  0  0  0  0  0  0  0  0  0  0  0
    5.3147    0.3339    0.0000 C   0  0  0  0  0  0  0  0  0  0  0  0
    6.1808    0.8339    0.0000 O   0  0  0  0  0  0  0  0  0  0  0  0
    6.1808    1.8339    0.0000 C   0  0  0  0  0  0  0  0  0  0  0  0
    7.0468    2.3339    0.0000 C   0  0  0  0  0  0  0  0  0  0  0  0
    7.0468    3.3339    0.0000 C   0  0  0  0  0  0  0  0  0  0  0  0
    7.9407    3.8685    0.0000 C   0  0  0  0  0  0  0  0  0  0  0  0
    8.8468    3.3547    0.0000 C   0  0  0  0  0  0  0  0  0  0  0  0
    8.8468    2.3131    0.0000 C   0  0  0  0  0  0  0  0  0  0  0  0
    7.9407    1.7992    0.0000 C   0  0  0  0  0  0  0  0  0  0  0  0
    6.1808    3.8339    0.0000 C   0  0  0  0  0  0  0  0  0  0  0  0
    5.3147    3.3339    0.0000 C   0  0  0  0  0  0  0  0  0  0  0  0
    5.3147    2.3339    0.0000 C   0  0  0  0  0  0  0  0  0  0  0  0
    2.5402   -1.6529    0.0000 H   0  0  0  0  0  0  0  0  0  0  0  0
    1.3834   -2.9377    0.0000 H   0  0  0  0  0  0  0  0  0  0  0  0
    3.9389   -4.0755    0.0000 H   0  0  0  0  0  0  0  0  0  0  0  0
    3.9118   -0.8561    0.0000 H   0  0  0  0  0  0  0  0  0  0  0  0
    5.5278   -1.2487    0.0000 H   0  0  0  0  0  0  0  0  0  0  0  0
    5.9273   -0.5585    0.0000 H   0  0  0  0  0  0  0  0  0  0  0  0
    5.1027    0.9165    0.0000 H   0  0  0  0  0  0  0  0  0  0  0  0
    4.7041    0.2272    0.0000 H   0  0  0  0  0  0  0  0  0  0  0  0
    7.9336    4.4885    0.0000 H   0  0  0  0  0  0  0  0  0  0  0  0
    9.3827    3.6668    0.0000 H   0  0  0  0  0  0  0  0  0  0  0  0
    9.3827    2.0010    0.0000 H   0  0  0  0  0  0  0  0  0  0  0  0
    7.9336    1.1793    0.0000 H   0  0  0  0  0  0  0  0  0  0  0  0
    6.1808    4.4539    0.0000 H   0  0  0  0  0  0  0  0  0  0  0  0
    4.7778    3.6439    0.0000 H   0  0  0  0  0  0  0  0  0  0  0  0
    4.7778    2.0239    0.0000 H   0  0  0  0  0  0  0  0  0  0  0  0
  1  2  2  0  0  0  0
  2  3  1  0  0  0  0
  3  4  1  0  0  0  0
  4  5  2  0  0  0  0
  5  6  1  0  0  0  0
  6  7  2  0  0  0  0
  3  7  1  0  0  0  0
  2  8  1  0  0  0  0
  8  9  1  0  0  0  0
  9 10  1  0  0  0  0
 10 11  1  0  0  0  0
 11 12  1  0  0  0  0
 12 13  2  0  0  0  0
 13 14  1  0  0  0  0
 14 15  1  0  0  0  0
 15 16  2  0  0  0  0
 16 17  1  0  0  0  0
 17 18  2  0  0  0  0
 13 18  1  0  0  0  0
 14 19  2  0  0  0  0
 19 20  1  0  0  0  0
 20 21  2  0  0  0  0
 12 21  1  0  0  0  0
  4 22  1  0  0  0  0
  5 23  1  0  0  0  0
  7 24  1  0  0  0  0
  8 27  1  0  0  0  0
  9 27  1  0  0  0  0
  9 27  1  0  0  0  0
 10 28  1  0  0  0  0
 10 29  1  0  0  0  0
 15 30  1  0  0  0  0
 16 31  1  0  0  0  0
 17 32  1  0  0  0  0
 18 33  1  0  0  0  0
 19 34  1  0  0  0  0
 20 35  1  0  0  0  0
 21 36  1  0  0  0  0
M  END
> <UNIQUE_SMILES>
O=C(NCCOC1=C2C=CC=CC2=CC=C1)[N]3C=CN=C3

> <USER_SUPPLIED_SMILES>
O=C(N1C=CN=C1)NCCOC2=C3C(C=CC=C3)=CC=C2

$$$$
32
APtclcactv03162116352D 0   0.00000     0.00000    32
 
 29 30  0  0  0  0  0  0  0  0999 V2000
    4.4487   -1.5000    0.0000 O   0  0  0  0  0  0  0  0  0  0  0  0
    4.4487   -0.5000    0.0000 C   0  0  0  0  0  0  0  0  0  0  0  0
    3.5827   -0.0000    0.0000 N   0  0  0  0  0  0  0  0  0  0  0  0
    3.4781    0.9945    0.0000 C   0  0  0  0  0  0  0  0  0  0  0  0
    2.5000    1.2024    0.0000 C   0  0  0  0  0  0  0  0  0  0  0  0
    2.0000    0.3364    0.0000 N   0  0  0  0  0  0  0  0  0  0  0  0
    2.6691   -0.4067    0.0000 C   0  0  0  0  0  0  0  0  0  0  0  0
    5.3147   -0.0000    0.0000 N   0  0  0  0  0  0  0  0  0  0  0  0
    6.1808   -0.5000    0.0000 C   0  0  0  0  0  0  0  0  0  0  0  0
    7.0468   -0.0000    0.0000 C   0  0  0  0  0  0  0  0  0  0  0  0
    7.9128   -0.5000    0.0000 O   0  0  0  0  0  0  0  0  0  0  0  0
    8.7788    0.0000    0.0000 C   0  0  0  0  0  0  0  0  0  0  0  0
    9.6449   -0.5000    0.0000 N   0  0  0  0  0  0  0  0  0  0  0  0
   10.5109    0.0000    0.0000 C   0  0  0  0  0  0  0  0  0  0  0  0
   11.3769   -0.5000    0.0000 Br  0  0  0  0  0  0  0  0  0  0  0  0
   10.5109    1.0000    0.0000 C   0  0  0  0  0  0  0  0  0  0  0  0
    9.6449    1.5000    0.0000 C   0  0  0  0  0  0  0  0  0  0  0  0
    8.7788    1.0000    0.0000 C   0  0  0  0  0  0  0  0  0  0  0  0
    3.9389    1.4094    0.0000 H   0  0  0  0  0  0  0  0  0  0  0  0
    2.2478    1.7688    0.0000 H   0  0  0  0  0  0  0  0  0  0  0  0
    2.5402   -1.0132    0.0000 H   0  0  0  0  0  0  0  0  0  0  0  0
    5.3147    0.6200    0.0000 H   0  0  0  0  0  0  0  0  0  0  0  0
    5.7822   -0.9749    0.0000 H   0  0  0  0  0  0  0  0  0  0  0  0
    6.5793   -0.9749    0.0000 H   0  0  0  0  0  0  0  0  0  0  0  0
    7.4453    0.4749    0.0000 H   0  0  0  0  0  0  0  0  0  0  0  0
    6.6482    0.4749    0.0000 H   0  0  0  0  0  0  0  0  0  0  0  0
   11.0478    1.3100    0.0000 H   0  0  0  0  0  0  0  0  0  0  0  0
    9.6449    2.1200    0.0000 H   0  0  0  0  0  0  0  0  0  0  0  0
    8.2419    1.3100    0.0000 H   0  0  0  0  0  0  0  0  0  0  0  0
  1  2  2  0  0  0  0
  2  3  1  0  0  0  0
  3  4  1  0  0  0  0
  4  5  2  0  0  0  0
  5  6  1  0  0  0  0
  6  7  2  0  0  0  0
  3  7  1  0  0  0  0
  2  8  1  0  0  0  0
  8  9  1  0  0  0  0
  9 10  1  0  0  0  0
 10 11  1  0  0  0  0
 11 12  1  0  0  0  0
 12 13  2  0  0  0  0
 13 14  1  0  0  0  0
 14 15  1  0  0  0  0
 14 16  2  0  0  0  0
 16 17  1  0  0  0  0
 17 18  2  0  0  0  0
 12 18  1  0  0  0  0
  4 19  1  0  0  0  0
  5 20  1  0  0  0  0
  7 21  1  0  0  0  0
  8 22  1  0  0  0  0
  9 23  1  0  0  0  0
  9 24  1  0  0  0  0
 10 27  1  0  0  0  0
 10 27  1  0  0  0  0
 16 27  1  0  0  0  0
 17 28  1  0  0  0  0
 18 29  1  0  0  0  0
M  END
> <UNIQUE_SMILES>
BrC1=CC=CC(=N1)OCCNC(=O)[N]2C=CN=C2

> <USER_SUPPLIED_SMILES>
O=C(N1C=CN=C1)NCCOC2=NC(Br)=CC=C2

$$$$
33
APtclcactv03162116352D 0   0.00000     0.00000    33
 
 37 38  0  0  0  0  0  0  0  0999 V2000
    4.5981    2.6488    0.0000 O   0  0  0  0  0  0  0  0  0  0  0  0
    5.4641    2.1488    0.0000 C   0  0  0  0  0  0  0  0  0  0  0  0
    6.3301    2.6488    0.0000 N   0  0  0  0  0  0  0  0  0  0  0  0
    7.2437    2.2420    0.0000 C   0  0  0  0  0  0  0  0  0  0  0  0
    7.9128    2.9852    0.0000 C   0  0  0  0  0  0  0  0  0  0  0  0
    7.4128    3.8512    0.0000 N   0  0  0  0  0  0  0  0  0  0  0  0
    6.4347    3.6433    0.0000 C   0  0  0  0  0  0  0  0  0  0  0  0
    5.4641    1.1488    0.0000 N   0  0  0  0  0  0  0  0  0  0  0  0
    4.5981    0.6488    0.0000 C   0  0  0  0  0  0  0  0  0  0  0  0
    4.5981   -0.3512    0.0000 C   0  0  0  0  0  0  0  0  0  0  0  0
    3.7321   -0.8512    0.0000 N   0  0  0  0  0  0  0  0  0  0  0  0
    2.8660   -0.3512    0.0000 C   0  0  0  0  0  0  0  0  0  0  0  0
    3.7321   -1.8512    0.0000 C   0  0  0  0  0  0  0  0  0  0  0  0
    2.8660   -2.3512    0.0000 C   0  0  0  0  0  0  0  0  0  0  0  0
    2.8660   -3.3512    0.0000 C   0  0  0  0  0  0  0  0  0  0  0  0
    2.0000   -3.8512    0.0000 C   0  0  0  0  0  0  0  0  0  0  0  0
    3.7321   -3.8512    0.0000 C   0  0  0  0  0  0  0  0  0  0  0  0
    4.5981   -3.3512    0.0000 C   0  0  0  0  0  0  0  0  0  0  0  0
    4.5981   -2.3512    0.0000 C   0  0  0  0  0  0  0  0  0  0  0  0
    7.3727    1.6356    0.0000 H   0  0  0  0  0  0  0  0  0  0  0  0
    8.5294    2.9204    0.0000 H   0  0  0  0  0  0  0  0  0  0  0  0
    5.9739    4.0582    0.0000 H   0  0  0  0  0  0  0  0  0  0  0  0
    6.0010    0.8388    0.0000 H   0  0  0  0  0  0  0  0  0  0  0  0
    4.3860    1.2314    0.0000 H   0  0  0  0  0  0  0  0  0  0  0  0
    3.9875    0.5411    0.0000 H   0  0  0  0  0  0  0  0  0  0  0  0
    4.8101   -0.9338    0.0000 H   0  0  0  0  0  0  0  0  0  0  0  0
    5.2087   -0.2436    0.0000 H   0  0  0  0  0  0  0  0  0  0  0  0
    3.1760    0.1857    0.0000 H   0  0  0  0  0  0  0  0  0  0  0  0
    2.3291   -0.0412    0.0000 H   0  0  0  0  0  0  0  0  0  0  0  0
    2.5560   -0.8882    0.0000 H   0  0  0  0  0  0  0  0  0  0  0  0
    2.3291   -2.0412    0.0000 H   0  0  0  0  0  0  0  0  0  0  0  0
    1.6900   -3.3143    0.0000 H   0  0  0  0  0  0  0  0  0  0  0  0
    1.4631   -4.1612    0.0000 H   0  0  0  0  0  0  0  0  0  0  0  0
    2.3100   -4.3882    0.0000 H   0  0  0  0  0  0  0  0  0  0  0  0
    3.7321   -4.4712    0.0000 H   0  0  0  0  0  0  0  0  0  0  0  0
    5.1350   -3.6612    0.0000 H   0  0  0  0  0  0  0  0  0  0  0  0
    5.1350   -2.0412    0.0000 H   0  0  0  0  0  0  0  0  0  0  0  0
  1  2  2  0  0  0  0
  2  3  1  0  0  0  0
  3  4  1  0  0  0  0
  4  5  2  0  0  0  0
  5  6  1  0  0  0  0
  6  7  2  0  0  0  0
  3  7  1  0  0  0  0
  2  8  1  0  0  0  0
  8  9  1  0  0  0  0
  9 10  1  0  0  0  0
 10 11  1  0  0  0  0
 11 12  1  0  0  0  0
 11 13  1  0  0  0  0
 13 14  2  0  0  0  0
 14 15  1  0  0  0  0
 15 16  1  0  0  0  0
 15 17  2  0  0  0  0
 17 18  1  0  0  0  0
 18 19  2  0  0  0  0
 13 19  1  0  0  0  0
  4 20  1  0  0  0  0
  5 21  1  0  0  0  0
  7 22  1  0  0  0  0
  8 23  1  0  0  0  0
  9 24  1  0  0  0  0
  9 27  1  0  0  0  0
 10 27  1  0  0  0  0
 10 27  1  0  0  0  0
 12 28  1  0  0  0  0
 12 29  1  0  0  0  0
 12 30  1  0  0  0  0
 14 31  1  0  0  0  0
 16 32  1  0  0  0  0
 16 33  1  0  0  0  0
 16 34  1  0  0  0  0
 17 35  1  0  0  0  0
 18 36  1  0  0  0  0
 19 37  1  0  0  0  0
M  END
> <UNIQUE_SMILES>
CN(CCNC(=O)[N]1C=CN=C1)C2=CC(=CC=C2)C

> <USER_SUPPLIED_SMILES>
O=C(N1C=CN=C1)NCCN(C)C2=CC(C)=CC=C2

$$$$
34
APtclcactv03162116352D 0   0.00000     0.00000    34
 
 32 33  0  0  0  0  0  0  0  0999 V2000
    4.5981    2.6488    0.0000 O   0  0  0  0  0  0  0  0  0  0  0  0
    5.4641    2.1488    0.0000 C   0  0  0  0  0  0  0  0  0  0  0  0
    6.3301    2.6488    0.0000 N   0  0  0  0  0  0  0  0  0  0  0  0
    6.4347    3.6433    0.0000 C   0  0  0  0  0  0  0  0  0  0  0  0
    7.4128    3.8512    0.0000 C   0  0  0  0  0  0  0  0  0  0  0  0
    7.9128    2.9852    0.0000 N   0  0  0  0  0  0  0  0  0  0  0  0
    7.2437    2.2420    0.0000 C   0  0  0  0  0  0  0  0  0  0  0  0
    5.4641    1.1488    0.0000 N   0  0  0  0  0  0  0  0  0  0  0  0
    4.5981    0.6488    0.0000 C   0  0  0  0  0  0  0  0  0  0  0  0
    4.5981   -0.3512    0.0000 C   0  0  0  0  0  0  0  0  0  0  0  0
    3.7321   -0.8512    0.0000 O   0  0  0  0  0  0  0  0  0  0  0  0
    3.7321   -1.8512    0.0000 C   0  0  0  0  0  0  0  0  0  0  0  0
    2.8660   -2.3512    0.0000 C   0  0  0  0  0  0  0  0  0  0  0  0
    2.8660   -3.3512    0.0000 C   0  0  0  0  0  0  0  0  0  0  0  0
    2.0000   -3.8512    0.0000 C   0  0  0  0  0  0  0  0  0  0  0  0
    3.7321   -3.8512    0.0000 C   0  0  0  0  0  0  0  0  0  0  0  0
    4.5981   -3.3512    0.0000 C   0  0  0  0  0  0  0  0  0  0  0  0
    4.5981   -2.3512    0.0000 C   0  0  0  0  0  0  0  0  0  0  0  0
    5.4641   -0.8512    0.0000 O   0  0  0  0  0  0  0  0  0  0  0  0
    5.9739    4.0582    0.0000 H   0  0  0  0  0  0  0  0  0  0  0  0
    7.6650    4.4176    0.0000 H   0  0  0  0  0  0  0  0  0  0  0  0
    7.3727    1.6356    0.0000 H   0  0  0  0  0  0  0  0  0  0  0  0
    6.0010    0.8388    0.0000 H   0  0  0  0  0  0  0  0  0  0  0  0
    4.3860    1.2314    0.0000 H   0  0  0  0  0  0  0  0  0  0  0  0
    3.9875    0.5411    0.0000 H   0  0  0  0  0  0  0  0  0  0  0  0
    2.3291   -2.0412    0.0000 H   0  0  0  0  0  0  0  0  0  0  0  0
    1.6900   -3.3143    0.0000 H   0  0  0  0  0  0  0  0  0  0  0  0
    1.4631   -4.1612    0.0000 H   0  0  0  0  0  0  0  0  0  0  0  0
    2.3100   -4.3882    0.0000 H   0  0  0  0  0  0  0  0  0  0  0  0
    3.7321   -4.4712    0.0000 H   0  0  0  0  0  0  0  0  0  0  0  0
    5.1350   -3.6612    0.0000 H   0  0  0  0  0  0  0  0  0  0  0  0
    5.1350   -2.0412    0.0000 H   0  0  0  0  0  0  0  0  0  0  0  0
  1  2  2  0  0  0  0
  2  3  1  0  0  0  0
  3  4  1  0  0  0  0
  4  5  2  0  0  0  0
  5  6  1  0  0  0  0
  6  7  2  0  0  0  0
  3  7  1  0  0  0  0
  2  8  1  0  0  0  0
  8  9  1  0  0  0  0
  9 10  1  0  0  0  0
 10 11  1  0  0  0  0
 11 12  1  0  0  0  0
 12 13  2  0  0  0  0
 13 14  1  0  0  0  0
 14 15  1  0  0  0  0
 14 16  2  0  0  0  0
 16 17  1  0  0  0  0
 17 18  2  0  0  0  0
 12 18  1  0  0  0  0
 10 19  2  0  0  0  0
  4 20  1  0  0  0  0
  5 21  1  0  0  0  0
  7 22  1  0  0  0  0
  8 23  1  0  0  0  0
  9 24  1  0  0  0  0
  9 27  1  0  0  0  0
 13 27  1  0  0  0  0
 15 27  1  0  0  0  0
 15 28  1  0  0  0  0
 15 29  1  0  0  0  0
 16 30  1  0  0  0  0
 17 31  1  0  0  0  0
 18 32  1  0  0  0  0
M  END
> <UNIQUE_SMILES>
CC1=CC=CC(=C1)OC(=O)CNC(=O)[N]2C=CN=C2

> <USER_SUPPLIED_SMILES>
O=C(N1C=CN=C1)NCC(OC2=CC(C)=CC=C2)=O

$$$$
35
APtclcactv03162116352D 0   0.00000     0.00000    35
 
 36 37  0  0  0  0  0  0  0  0999 V2000
    4.5981    2.6488    0.0000 O   0  0  0  0  0  0  0  0  0  0  0  0
    5.4641    2.1488    0.0000 C   0  0  0  0  0  0  0  0  0  0  0  0
    6.3301    2.6488    0.0000 N   0  0  0  0  0  0  0  0  0  0  0  0
    7.2437    2.2420    0.0000 C   0  0  0  0  0  0  0  0  0  0  0  0
    7.9128    2.9852    0.0000 C   0  0  0  0  0  0  0  0  0  0  0  0
    7.4128    3.8512    0.0000 N   0  0  0  0  0  0  0  0  0  0  0  0
    6.4347    3.6433    0.0000 C   0  0  0  0  0  0  0  0  0  0  0  0
    5.4641    1.1488    0.0000 N   0  0  0  0  0  0  0  0  0  0  0  0
    4.5981    0.6488    0.0000 C   0  0  0  0  0  0  0  0  0  0  0  0
    4.5981   -0.3512    0.0000 C   0  0  0  0  0  0  0  0  0  0  0  0
    3.7321   -0.8512    0.0000 N   0  0  0  0  0  0  0  0  0  0  0  0
    2.8660   -0.3512    0.0000 C   0  0  0  0  0  0  0  0  0  0  0  0
    3.7321   -1.8512    0.0000 C   0  0  0  0  0  0  0  0  0  0  0  0
    2.8660   -2.3512    0.0000 C   0  0  0  0  0  0  0  0  0  0  0  0
    2.8660   -3.3512    0.0000 C   0  0  0  0  0  0  0  0  0  0  0  0
    2.0000   -3.8512    0.0000 C   0  0  0  0  0  0  0  0  0  0  0  0
    3.7321   -3.8512    0.0000 C   0  0  0  0  0  0  0  0  0  0  0  0
    4.5981   -3.3512    0.0000 C   0  0  0  0  0  0  0  0  0  0  0  0
    4.5981   -2.3512    0.0000 C   0  0  0  0  0  0  0  0  0  0  0  0
    5.4641   -0.8512    0.0000 O   0  0  0  0  0  0  0  0  0  0  0  0
    7.3727    1.6356    0.0000 H   0  0  0  0  0  0  0  0  0  0  0  0
    8.5294    2.9204    0.0000 H   0  0  0  0  0  0  0  0  0  0  0  0
    5.9739    4.0582    0.0000 H   0  0  0  0  0  0  0  0  0  0  0  0
    6.0010    0.8388    0.0000 H   0  0  0  0  0  0  0  0  0  0  0  0
    4.3860    1.2314    0.0000 H   0  0  0  0  0  0  0  0  0  0  0  0
    3.9875    0.5411    0.0000 H   0  0  0  0  0  0  0  0  0  0  0  0
    3.1760    0.1857    0.0000 H   0  0  0  0  0  0  0  0  0  0  0  0
    2.3291   -0.0412    0.0000 H   0  0  0  0  0  0  0  0  0  0  0  0
    2.5560   -0.8882    0.0000 H   0  0  0  0  0  0  0  0  0  0  0  0
    2.3291   -2.0412    0.0000 H   0  0  0  0  0  0  0  0  0  0  0  0
    1.6900   -3.3143    0.0000 H   0  0  0  0  0  0  0  0  0  0  0  0
    1.4631   -4.1612    0.0000 H   0  0  0  0  0  0  0  0  0  0  0  0
    2.3100   -4.3882    0.0000 H   0  0  0  0  0  0  0  0  0  0  0  0
    3.7321   -4.4712    0.0000 H   0  0  0  0  0  0  0  0  0  0  0  0
    5.1350   -3.6612    0.0000 H   0  0  0  0  0  0  0  0  0  0  0  0
    5.1350   -2.0412    0.0000 H   0  0  0  0  0  0  0  0  0  0  0  0
  1  2  2  0  0  0  0
  2  3  1  0  0  0  0
  3  4  1  0  0  0  0
  4  5  2  0  0  0  0
  5  6  1  0  0  0  0
  6  7  2  0  0  0  0
  3  7  1  0  0  0  0
  2  8  1  0  0  0  0
  8  9  1  0  0  0  0
  9 10  1  0  0  0  0
 10 11  1  0  0  0  0
 11 12  1  0  0  0  0
 11 13  1  0  0  0  0
 13 14  2  0  0  0  0
 14 15  1  0  0  0  0
 15 16  1  0  0  0  0
 15 17  2  0  0  0  0
 17 18  1  0  0  0  0
 18 19  2  0  0  0  0
 13 19  1  0  0  0  0
 10 20  2  0  0  0  0
  4 21  1  0  0  0  0
  5 22  1  0  0  0  0
  7 23  1  0  0  0  0
  8 24  1  0  0  0  0
  9 27  1  0  0  0  0
  9 27  1  0  0  0  0
 12 27  1  0  0  0  0
 12 28  1  0  0  0  0
 12 29  1  0  0  0  0
 14 30  1  0  0  0  0
 16 31  1  0  0  0  0
 16 32  1  0  0  0  0
 16 33  1  0  0  0  0
 17 34  1  0  0  0  0
 18 35  1  0  0  0  0
 19 36  1  0  0  0  0
M  END
> <UNIQUE_SMILES>
CN(C(=O)CNC(=O)[N]1C=CN=C1)C2=CC(=CC=C2)C

> <USER_SUPPLIED_SMILES>
O=C(N1C=CN=C1)NCC(N(C)C2=CC(C)=CC=C2)=O

$$$$
36
APtclcactv03162116352D 0   0.00000     0.00000    36
 
 32 33  0  0  0  0  0  0  0  0999 V2000
    6.3301    1.4806    0.0000 O   0  0  0  0  0  0  0  0  0  0  0  0
    5.4641    1.9806    0.0000 C   0  0  0  0  0  0  0  0  0  0  0  0
    5.4641    2.9806    0.0000 N   0  0  0  0  0  0  0  0  0  0  0  0
    6.2731    3.5684    0.0000 C   0  0  0  0  0  0  0  0  0  0  0  0
    5.9641    4.5194    0.0000 C   0  0  0  0  0  0  0  0  0  0  0  0
    4.9641    4.5194    0.0000 N   0  0  0  0  0  0  0  0  0  0  0  0
    4.6551    3.5684    0.0000 C   0  0  0  0  0  0  0  0  0  0  0  0
    4.5981    1.4806    0.0000 N   0  0  0  0  0  0  0  0  0  0  0  0
    4.5981    0.4806    0.0000 C   0  0  0  0  0  0  0  0  0  0  0  0
    3.7321   -0.0194    0.0000 C   0  0  0  0  0  0  0  0  0  0  0  0
    3.7321   -1.0194    0.0000 O   0  0  0  0  0  0  0  0  0  0  0  0
    2.8660   -1.5194    0.0000 C   0  0  0  0  0  0  0  0  0  0  0  0
    2.8660   -2.5194    0.0000 C   0  0  0  0  0  0  0  0  0  0  0  0
    2.0000   -3.0194    0.0000 C   0  0  0  0  0  0  0  0  0  0  0  0
    2.0000   -4.0194    0.0000 C   0  0  0  0  0  0  0  0  0  0  0  0
    2.8660   -4.5194    0.0000 C   0  0  0  0  0  0  0  0  0  0  0  0
    3.7321   -4.0194    0.0000 C   0  0  0  0  0  0  0  0  0  0  0  0
    3.7321   -3.0194    0.0000 C   0  0  0  0  0  0  0  0  0  0  0  0
    2.8660    0.4806    0.0000 O   0  0  0  0  0  0  0  0  0  0  0  0
    6.8628    3.3768    0.0000 H   0  0  0  0  0  0  0  0  0  0  0  0
    6.3285    5.0210    0.0000 H   0  0  0  0  0  0  0  0  0  0  0  0
    4.0654    3.3768    0.0000 H   0  0  0  0  0  0  0  0  0  0  0  0
    4.0611    1.7906    0.0000 H   0  0  0  0  0  0  0  0  0  0  0  0
    4.8101   -0.1020    0.0000 H   0  0  0  0  0  0  0  0  0  0  0  0
    5.2087    0.5882    0.0000 H   0  0  0  0  0  0  0  0  0  0  0  0
    2.6540   -0.9368    0.0000 H   0  0  0  0  0  0  0  0  0  0  0  0
    2.2754   -1.6271    0.0000 H   0  0  0  0  0  0  0  0  0  0  0  0
    1.4631   -2.7094    0.0000 H   0  0  0  0  0  0  0  0  0  0  0  0
    1.4631   -4.3294    0.0000 H   0  0  0  0  0  0  0  0  0  0  0  0
    2.8660   -5.1394    0.0000 H   0  0  0  0  0  0  0  0  0  0  0  0
    4.2790   -4.3294    0.0000 H   0  0  0  0  0  0  0  0  0  0  0  0
    4.2790   -2.7094    0.0000 H   0  0  0  0  0  0  0  0  0  0  0  0
  1  2  2  0  0  0  0
  2  3  1  0  0  0  0
  3  4  1  0  0  0  0
  4  5  2  0  0  0  0
  5  6  1  0  0  0  0
  6  7  2  0  0  0  0
  3  7  1  0  0  0  0
  2  8  1  0  0  0  0
  8  9  1  0  0  0  0
  9 10  1  0  0  0  0
 10 11  1  0  0  0  0
 11 12  1  0  0  0  0
 12 13  1  0  0  0  0
 13 14  2  0  0  0  0
 14 15  1  0  0  0  0
 15 16  2  0  0  0  0
 16 17  1  0  0  0  0
 17 18  2  0  0  0  0
 13 18  1  0  0  0  0
 10 19  2  0  0  0  0
  4 20  1  0  0  0  0
  5 21  1  0  0  0  0
  7 22  1  0  0  0  0
  8 23  1  0  0  0  0
  9 24  1  0  0  0  0
  9 27  1  0  0  0  0
 12 27  1  0  0  0  0
 12 27  1  0  0  0  0
 14 28  1  0  0  0  0
 15 29  1  0  0  0  0
 16 30  1  0  0  0  0
 17 31  1  0  0  0  0
 18 32  1  0  0  0  0
M  END
> <UNIQUE_SMILES>
O=C(CNC(=O)[N]1C=CN=C1)OCC2=CC=CC=C2

> <USER_SUPPLIED_SMILES>
O=C(N1C=CN=C1)NCC(OCC2=CC=CC=C2)=O

$$$$
37
APtclcactv03162116352D 0   0.00000     0.00000    37
 
 32 33  0  0  0  0  0  0  0  0999 V2000
    2.0000   -4.5194    0.0000 Cl  0  0  0  0  0  0  0  0  0  0  0  0
    2.8660   -4.0194    0.0000 C   0  0  0  0  0  0  0  0  0  0  0  0
    3.7321   -4.5194    0.0000 C   0  0  0  0  0  0  0  0  0  0  0  0
    4.5981   -4.0194    0.0000 C   0  0  0  0  0  0  0  0  0  0  0  0
    4.5981   -3.0194    0.0000 C   0  0  0  0  0  0  0  0  0  0  0  0
    3.7321   -2.5194    0.0000 C   0  0  0  0  0  0  0  0  0  0  0  0
    3.7321   -1.5194    0.0000 C   0  0  0  0  0  0  0  0  0  0  0  0
    4.5981   -1.0194    0.0000 O   0  0  0  0  0  0  0  0  0  0  0  0
    4.5981   -0.0194    0.0000 C   0  0  0  0  0  0  0  0  0  0  0  0
    5.4641    0.4806    0.0000 C   0  0  0  0  0  0  0  0  0  0  0  0
    5.4641    1.4806    0.0000 N   0  0  0  0  0  0  0  0  0  0  0  0
    6.3301    1.9806    0.0000 C   0  0  0  0  0  0  0  0  0  0  0  0
    6.3301    2.9806    0.0000 N   0  0  0  0  0  0  0  0  0  0  0  0
    7.1391    3.5684    0.0000 C   0  0  0  0  0  0  0  0  0  0  0  0
    6.8301    4.5194    0.0000 N   0  0  0  0  0  0  0  0  0  0  0  0
    5.8301    4.5194    0.0000 C   0  0  0  0  0  0  0  0  0  0  0  0
    5.5211    3.5684    0.0000 C   0  0  0  0  0  0  0  0  0  0  0  0
    7.1962    1.4806    0.0000 O   0  0  0  0  0  0  0  0  0  0  0  0
    2.8660   -1.0194    0.0000 O   0  0  0  0  0  0  0  0  0  0  0  0
    2.8660   -3.0194    0.0000 C   0  0  0  0  0  0  0  0  0  0  0  0
    3.7321   -5.1394    0.0000 H   0  0  0  0  0  0  0  0  0  0  0  0
    5.1350   -4.3294    0.0000 H   0  0  0  0  0  0  0  0  0  0  0  0
    5.1350   -2.7094    0.0000 H   0  0  0  0  0  0  0  0  0  0  0  0
    4.3860    0.5632    0.0000 H   0  0  0  0  0  0  0  0  0  0  0  0
    3.9875   -0.1271    0.0000 H   0  0  0  0  0  0  0  0  0  0  0  0
    5.6762   -0.1020    0.0000 H   0  0  0  0  0  0  0  0  0  0  0  0
    6.0747    0.5882    0.0000 H   0  0  0  0  0  0  0  0  0  0  0  0
    4.9272    1.7906    0.0000 H   0  0  0  0  0  0  0  0  0  0  0  0
    7.7288    3.3768    0.0000 H   0  0  0  0  0  0  0  0  0  0  0  0
    5.4657    5.0210    0.0000 H   0  0  0  0  0  0  0  0  0  0  0  0
    4.9315    3.3768    0.0000 H   0  0  0  0  0  0  0  0  0  0  0  0
    2.3291   -2.7094    0.0000 H   0  0  0  0  0  0  0  0  0  0  0  0
  1  2  1  0  0  0  0
  2  3  2  0  0  0  0
  3  4  1  0  0  0  0
  4  5  2  0  0  0  0
  5  6  1  0  0  0  0
  6  7  1  0  0  0  0
  7  8  1  0  0  0  0
  8  9  1  0  0  0  0
  9 10  1  0  0  0  0
 10 11  1  0  0  0  0
 11 12  1  0  0  0  0
 12 13  1  0  0  0  0
 13 14  1  0  0  0  0
 14 15  2  0  0  0  0
 15 16  1  0  0  0  0
 16 17  2  0  0  0  0
 13 17  1  0  0  0  0
 12 18  2  0  0  0  0
  7 19  2  0  0  0  0
  6 20  2  0  0  0  0
  2 20  1  0  0  0  0
  3 21  1  0  0  0  0
  4 22  1  0  0  0  0
  5 23  1  0  0  0  0
  9 24  1  0  0  0  0
  9 27  1  0  0  0  0
 10 27  1  0  0  0  0
 10 27  1  0  0  0  0
 11 28  1  0  0  0  0
 14 29  1  0  0  0  0
 16 30  1  0  0  0  0
 17 31  1  0  0  0  0
 20 32  1  0  0  0  0
M  END
> <UNIQUE_SMILES>
ClC1=CC=CC(=C1)C(=O)OCCNC(=O)[N]2C=CN=C2

> <USER_SUPPLIED_SMILES>
ClC1=CC=CC(C(OCCNC(N2C=NC=C2)=O)=O)=C1

$$$$
38
APtclcactv03162116352D 0   0.00000     0.00000    38
 
 32 33  0  0  0  0  0  0  0  0999 V2000
    4.7770   -1.5227    0.0000 O   0  0  0  0  0  0  0  0  0  0  0  0
    4.5691   -0.5444    0.0000 C   0  0  0  0  0  0  0  0  0  0  0  0
    5.3122    0.1248    0.0000 O   0  0  0  0  0  0  0  0  0  0  0  0
    6.2733   -0.1843    0.0000 C   0  0  0  0  0  0  0  0  0  0  0  0
    7.0064    0.4849    0.0000 C   0  0  0  0  0  0  0  0  0  0  0  0
    7.9575    0.1759    0.0000 N   0  0  0  0  0  0  0  0  0  0  0  0
    8.7006    0.8450    0.0000 C   0  0  0  0  0  0  0  0  0  0  0  0
    9.6517    0.5360    0.0000 N   0  0  0  0  0  0  0  0  0  0  0  0
    9.9607   -0.4151    0.0000 C   0  0  0  0  0  0  0  0  0  0  0  0
   10.9607   -0.4151    0.0000 N   0  0  0  0  0  0  0  0  0  0  0  0
   11.2797    0.5360    0.0000 C   0  0  0  0  0  0  0  0  0  0  0  0
   10.4607    1.1238    0.0000 C   0  0  0  0  0  0  0  0  0  0  0  0
    8.4927    1.8231    0.0000 O   0  0  0  0  0  0  0  0  0  0  0  0
    3.6180   -0.2354    0.0000 C   0  0  0  0  0  0  0  0  0  0  0  0
    3.3090    0.7157    0.0000 C   0  0  0  0  0  0  0  0  0  0  0  0
    2.3090    0.7157    0.0000 C   0  0  0  0  0  0  0  0  0  0  0  0
    2.0000   -0.2354    0.0000 N   0  0  0  0  0  0  0  0  0  0  0  0
    2.8090   -0.8231    0.0000 N   0  0  0  0  0  0  0  0  0  0  0  0
    2.8090   -1.8231    0.0000 C   0  0  0  0  0  0  0  0  0  0  0  0
    5.9722   -0.7317    0.0000 H   0  0  0  0  0  0  0  0  0  0  0  0
    6.7519   -0.5660    0.0000 H   0  0  0  0  0  0  0  0  0  0  0  0
    7.2975    1.0323    0.0000 H   0  0  0  0  0  0  0  0  0  0  0  0
    6.5179    0.8666    0.0000 H   0  0  0  0  0  0  0  0  0  0  0  0
    8.0864   -0.4306    0.0000 H   0  0  0  0  0  0  0  0  0  0  0  0
    9.5963   -0.9167    0.0000 H   0  0  0  0  0  0  0  0  0  0  0  0
   11.8594    0.7276    0.0000 H   0  0  0  0  0  0  0  0  0  0  0  0
   10.4607    1.7438    0.0000 H   0  0  0  0  0  0  0  0  0  0  0  0
    3.6734    1.2173    0.0000 H   0  0  0  0  0  0  0  0  0  0  0  0
    1.9446    1.2173    0.0000 H   0  0  0  0  0  0  0  0  0  0  0  0
    2.1890   -1.8231    0.0000 H   0  0  0  0  0  0  0  0  0  0  0  0
    2.8090   -2.4431    0.0000 H   0  0  0  0  0  0  0  0  0  0  0  0
    3.4290   -1.8231    0.0000 H   0  0  0  0  0  0  0  0  0  0  0  0
  1  2  2  0  0  0  0
  2  3  1  0  0  0  0
  3  4  1  0  0  0  0
  4  5  1  0  0  0  0
  5  6  1  0  0  0  0
  6  7  1  0  0  0  0
  7  8  1  0  0  0  0
  8  9  1  0  0  0  0
  9 10  2  0  0  0  0
 10 11  1  0  0  0  0
 11 12  2  0  0  0  0
  8 12  1  0  0  0  0
  7 13  2  0  0  0  0
  2 14  1  0  0  0  0
 14 15  2  0  0  0  0
 15 16  1  0  0  0  0
 16 17  2  0  0  0  0
 17 18  1  0  0  0  0
 14 18  1  0  0  0  0
 18 19  1  0  0  0  0
  4 20  1  0  0  0  0
  4 21  1  0  0  0  0
  5 22  1  0  0  0  0
  5 23  1  0  0  0  0
  6 24  1  0  0  0  0
  9 27  1  0  0  0  0
 11 27  1  0  0  0  0
 12 27  1  0  0  0  0
 15 28  1  0  0  0  0
 16 29  1  0  0  0  0
 19 30  1  0  0  0  0
 19 31  1  0  0  0  0
 19 32  1  0  0  0  0
M  END
> <UNIQUE_SMILES>
C[N]1N=CC=C1C(=O)OCCNC(=O)[N]2C=CN=C2

> <USER_SUPPLIED_SMILES>
O=C(OCCNC(N1C=NC=C1)=O)C2=CC=NN2C

$$$$
39
APtclcactv03162116352D 0   0.00000     0.00000    39
 
 32 33  0  0  0  0  0  0  0  0999 V2000
    5.3122    2.0409    0.0000 O   0  0  0  0  0  0  0  0  0  0  0  0
    4.5691    1.3717    0.0000 C   0  0  0  0  0  0  0  0  0  0  0  0
    4.7770    0.3936    0.0000 O   0  0  0  0  0  0  0  0  0  0  0  0
    5.7281    0.0846    0.0000 C   0  0  0  0  0  0  0  0  0  0  0  0
    5.9360   -0.8936    0.0000 C   0  0  0  0  0  0  0  0  0  0  0  0
    6.8870   -1.2027    0.0000 N   0  0  0  0  0  0  0  0  0  0  0  0
    7.0949   -2.1807    0.0000 C   0  0  0  0  0  0  0  0  0  0  0  0
    8.0460   -2.4898    0.0000 N   0  0  0  0  0  0  0  0  0  0  0  0
    8.8550   -1.9020    0.0000 C   0  0  0  0  0  0  0  0  0  0  0  0
    9.6640   -2.4898    0.0000 N   0  0  0  0  0  0  0  0  0  0  0  0
    9.3550   -3.4408    0.0000 C   0  0  0  0  0  0  0  0  0  0  0  0
    8.3550   -3.4408    0.0000 C   0  0  0  0  0  0  0  0  0  0  0  0
    6.3518   -2.8499    0.0000 O   0  0  0  0  0  0  0  0  0  0  0  0
    3.6180    1.6807    0.0000 C   0  0  0  0  0  0  0  0  0  0  0  0
    3.3090    2.6318    0.0000 C   0  0  0  0  0  0  0  0  0  0  0  0
    3.8968    3.4408    0.0000 C   0  0  0  0  0  0  0  0  0  0  0  0
    2.3090    2.6318    0.0000 C   0  0  0  0  0  0  0  0  0  0  0  0
    2.0000    1.6807    0.0000 C   0  0  0  0  0  0  0  0  0  0  0  0
    2.8090    1.0930    0.0000 O   0  0  0  0  0  0  0  0  0  0  0  0
    6.3477    0.1062    0.0000 H   0  0  0  0  0  0  0  0  0  0  0  0
    5.8143    0.6985    0.0000 H   0  0  0  0  0  0  0  0  0  0  0  0
    5.3163   -0.9152    0.0000 H   0  0  0  0  0  0  0  0  0  0  0  0
    5.8497   -1.5075    0.0000 H   0  0  0  0  0  0  0  0  0  0  0  0
    7.3478   -0.7877    0.0000 H   0  0  0  0  0  0  0  0  0  0  0  0
    8.8550   -1.2820    0.0000 H   0  0  0  0  0  0  0  0  0  0  0  0
    9.7194   -3.9424    0.0000 H   0  0  0  0  0  0  0  0  0  0  0  0
    7.9906   -3.9424    0.0000 H   0  0  0  0  0  0  0  0  0  0  0  0
    4.3984    3.0764    0.0000 H   0  0  0  0  0  0  0  0  0  0  0  0
    4.2712    3.9424    0.0000 H   0  0  0  0  0  0  0  0  0  0  0  0
    3.3952    3.8052    0.0000 H   0  0  0  0  0  0  0  0  0  0  0  0
    1.9446    3.1334    0.0000 H   0  0  0  0  0  0  0  0  0  0  0  0
    1.4103    1.4892    0.0000 H   0  0  0  0  0  0  0  0  0  0  0  0
  1  2  2  0  0  0  0
  2  3  1  0  0  0  0
  3  4  1  0  0  0  0
  4  5  1  0  0  0  0
  5  6  1  0  0  0  0
  6  7  1  0  0  0  0
  7  8  1  0  0  0  0
  8  9  1  0  0  0  0
  9 10  2  0  0  0  0
 10 11  1  0  0  0  0
 11 12  2  0  0  0  0
  8 12  1  0  0  0  0
  7 13  2  0  0  0  0
  2 14  1  0  0  0  0
 14 15  2  0  0  0  0
 15 16  1  0  0  0  0
 15 17  1  0  0  0  0
 17 18  2  0  0  0  0
 18 19  1  0  0  0  0
 14 19  1  0  0  0  0
  4 20  1  0  0  0  0
  4 21  1  0  0  0  0
  5 22  1  0  0  0  0
  5 23  1  0  0  0  0
  6 24  1  0  0  0  0
  9 27  1  0  0  0  0
 11 27  1  0  0  0  0
 12 27  1  0  0  0  0
 16 28  1  0  0  0  0
 16 29  1  0  0  0  0
 16 30  1  0  0  0  0
 17 31  1  0  0  0  0
 18 32  1  0  0  0  0
M  END
> <UNIQUE_SMILES>
CC1=C(OC=C1)C(=O)OCCNC(=O)[N]2C=CN=C2

> <USER_SUPPLIED_SMILES>
O=C(OCCNC(N1C=NC=C1)=O)C2=C(C)C=CO2

$$$$
40
APtclcactv03162116352D 0   0.00000     0.00000    40
 
 38 40  0  0  0  0  0  0  0  0999 V2000
    6.3301    1.0021    0.0000 O   0  0  0  0  0  0  0  0  0  0  0  0
    5.4641    1.5021    0.0000 C   0  0  0  0  0  0  0  0  0  0  0  0
    4.5981    1.0021    0.0000 O   0  0  0  0  0  0  0  0  0  0  0  0
    4.5981    0.0021    0.0000 C   0  0  0  0  0  0  0  0  0  0  0  0
    3.7321   -0.4979    0.0000 C   0  0  0  0  0  0  0  0  0  0  0  0
    3.7321   -1.4979    0.0000 N   0  0  0  0  0  0  0  0  0  0  0  0
    2.8660   -1.9979    0.0000 C   0  0  0  0  0  0  0  0  0  0  0  0
    2.8660   -2.9979    0.0000 N   0  0  0  0  0  0  0  0  0  0  0  0
    2.0570   -3.5857    0.0000 C   0  0  0  0  0  0  0  0  0  0  0  0
    2.3660   -4.5368    0.0000 N   0  0  0  0  0  0  0  0  0  0  0  0
    3.3660   -4.5368    0.0000 C   0  0  0  0  0  0  0  0  0  0  0  0
    3.6750   -3.5857    0.0000 C   0  0  0  0  0  0  0  0  0  0  0  0
    2.0000   -1.4979    0.0000 O   0  0  0  0  0  0  0  0  0  0  0  0
    5.4641    2.5021    0.0000 C   0  0  0  0  0  0  0  0  0  0  0  0
    6.3301    3.0021    0.0000 C   0  0  0  0  0  0  0  0  0  0  0  0
    7.2241    2.4674    0.0000 C   0  0  0  0  0  0  0  0  0  0  0  0
    7.2127    1.4675    0.0000 Br  0  0  0  0  0  0  0  0  0  0  0  0
    8.1301    2.9813    0.0000 C   0  0  0  0  0  0  0  0  0  0  0  0
    8.1301    4.0229    0.0000 C   0  0  0  0  0  0  0  0  0  0  0  0
    7.2241    4.5368    0.0000 C   0  0  0  0  0  0  0  0  0  0  0  0
    6.3301    4.0021    0.0000 C   0  0  0  0  0  0  0  0  0  0  0  0
    5.4641    4.5021    0.0000 C   0  0  0  0  0  0  0  0  0  0  0  0
    4.5981    4.0021    0.0000 C   0  0  0  0  0  0  0  0  0  0  0  0
    4.5981    3.0021    0.0000 C   0  0  0  0  0  0  0  0  0  0  0  0
    4.8101   -0.5805    0.0000 H   0  0  0  0  0  0  0  0  0  0  0  0
    5.2087    0.1098    0.0000 H   0  0  0  0  0  0  0  0  0  0  0  0
    3.5200    0.0847    0.0000 H   0  0  0  0  0  0  0  0  0  0  0  0
    3.1215   -0.6056    0.0000 H   0  0  0  0  0  0  0  0  0  0  0  0
    4.2790   -1.8079    0.0000 H   0  0  0  0  0  0  0  0  0  0  0  0
    1.4674   -3.3941    0.0000 H   0  0  0  0  0  0  0  0  0  0  0  0
    3.7305   -5.0383    0.0000 H   0  0  0  0  0  0  0  0  0  0  0  0
    4.2747   -3.3941    0.0000 H   0  0  0  0  0  0  0  0  0  0  0  0
    8.6659    2.6692    0.0000 H   0  0  0  0  0  0  0  0  0  0  0  0
    8.6659    4.3350    0.0000 H   0  0  0  0  0  0  0  0  0  0  0  0
    7.2169    5.1567    0.0000 H   0  0  0  0  0  0  0  0  0  0  0  0
    5.4641    5.1221    0.0000 H   0  0  0  0  0  0  0  0  0  0  0  0
    4.0611    4.3121    0.0000 H   0  0  0  0  0  0  0  0  0  0  0  0
    4.0611    2.6921    0.0000 H   0  0  0  0  0  0  0  0  0  0  0  0
  1  2  2  0  0  0  0
  2  3  1  0  0  0  0
  3  4  1  0  0  0  0
  4  5  1  0  0  0  0
  5  6  1  0  0  0  0
  6  7  1  0  0  0  0
  7  8  1  0  0  0  0
  8  9  1  0  0  0  0
  9 10  2  0  0  0  0
 10 11  1  0  0  0  0
 11 12  2  0  0  0  0
  8 12  1  0  0  0  0
  7 13  2  0  0  0  0
  2 14  1  0  0  0  0
 14 15  2  0  0  0  0
 15 16  1  0  0  0  0
 16 17  1  0  0  0  0
 16 18  2  0  0  0  0
 18 19  1  0  0  0  0
 19 20  2  0  0  0  0
 15 21  1  0  0  0  0
 20 21  1  0  0  0  0
 21 22  2  0  0  0  0
 22 23  1  0  0  0  0
 23 24  2  0  0  0  0
 14 24  1  0  0  0  0
  4 27  1  0  0  0  0
  4 27  1  0  0  0  0
  5 27  1  0  0  0  0
  5 28  1  0  0  0  0
  6 29  1  0  0  0  0
  9 30  1  0  0  0  0
 11 31  1  0  0  0  0
 12 32  1  0  0  0  0
 18 33  1  0  0  0  0
 19 34  1  0  0  0  0
 20 35  1  0  0  0  0
 22 36  1  0  0  0  0
 23 37  1  0  0  0  0
 24 38  1  0  0  0  0
M  END
> <UNIQUE_SMILES>
BrC1=CC=CC2=CC=CC(=C12)C(=O)OCCNC(=O)[N]3C=CN=C3

> <USER_SUPPLIED_SMILES>
O=C(OCCNC(N1C=NC=C1)=O)C2=C(C(Br)=CC=C3)C3=CC=C2

$$$$
41
APtclcactv03162116352D 0   0.00000     0.00000    41
 
 34 35  0  0  0  0  0  0  0  0999 V2000
    4.5981    2.6488    0.0000 O   0  0  0  0  0  0  0  0  0  0  0  0
    5.4641    2.1488    0.0000 C   0  0  0  0  0  0  0  0  0  0  0  0
    6.3301    2.6488    0.0000 N   0  0  0  0  0  0  0  0  0  0  0  0
    6.4347    3.6433    0.0000 C   0  0  0  0  0  0  0  0  0  0  0  0
    7.4128    3.8512    0.0000 C   0  0  0  0  0  0  0  0  0  0  0  0
    7.9128    2.9852    0.0000 C   0  0  0  0  0  0  0  0  0  0  0  0
    7.2437    2.2420    0.0000 C   0  0  0  0  0  0  0  0  0  0  0  0
    5.4641    1.1488    0.0000 N   0  0  0  0  0  0  0  0  0  0  0  0
    4.5981    0.6488    0.0000 C   0  0  0  0  0  0  0  0  0  0  0  0
    4.5981   -0.3512    0.0000 C   0  0  0  0  0  0  0  0  0  0  0  0
    3.7321   -0.8512    0.0000 O   0  0  0  0  0  0  0  0  0  0  0  0
    3.7321   -1.8512    0.0000 C   0  0  0  0  0  0  0  0  0  0  0  0
    2.8660   -2.3512    0.0000 C   0  0  0  0  0  0  0  0  0  0  0  0
    2.8660   -3.3512    0.0000 C   0  0  0  0  0  0  0  0  0  0  0  0
    2.0000   -3.8512    0.0000 C   0  0  0  0  0  0  0  0  0  0  0  0
    3.7321   -3.8512    0.0000 C   0  0  0  0  0  0  0  0  0  0  0  0
    4.5981   -3.3512    0.0000 C   0  0  0  0  0  0  0  0  0  0  0  0
    4.5981   -2.3512    0.0000 C   0  0  0  0  0  0  0  0  0  0  0  0
    5.9739    4.0582    0.0000 H   0  0  0  0  0  0  0  0  0  0  0  0
    7.6650    4.4176    0.0000 H   0  0  0  0  0  0  0  0  0  0  0  0
    8.5294    2.9204    0.0000 H   0  0  0  0  0  0  0  0  0  0  0  0
    7.3727    1.6356    0.0000 H   0  0  0  0  0  0  0  0  0  0  0  0
    6.0010    0.8388    0.0000 H   0  0  0  0  0  0  0  0  0  0  0  0
    4.3860    1.2314    0.0000 H   0  0  0  0  0  0  0  0  0  0  0  0
    3.9875    0.5411    0.0000 H   0  0  0  0  0  0  0  0  0  0  0  0
    4.8101   -0.9338    0.0000 H   0  0  0  0  0  0  0  0  0  0  0  0
    5.2087   -0.2436    0.0000 H   0  0  0  0  0  0  0  0  0  0  0  0
    2.3291   -2.0412    0.0000 H   0  0  0  0  0  0  0  0  0  0  0  0
    1.6900   -3.3143    0.0000 H   0  0  0  0  0  0  0  0  0  0  0  0
    1.4631   -4.1612    0.0000 H   0  0  0  0  0  0  0  0  0  0  0  0
    2.3100   -4.3882    0.0000 H   0  0  0  0  0  0  0  0  0  0  0  0
    3.7321   -4.4712    0.0000 H   0  0  0  0  0  0  0  0  0  0  0  0
    5.1350   -3.6612    0.0000 H   0  0  0  0  0  0  0  0  0  0  0  0
    5.1350   -2.0412    0.0000 H   0  0  0  0  0  0  0  0  0  0  0  0
  1  2  2  0  0  0  0
  2  3  1  0  0  0  0
  3  4  1  0  0  0  0
  4  5  2  0  0  0  0
  5  6  1  0  0  0  0
  6  7  2  0  0  0  0
  3  7  1  0  0  0  0
  2  8  1  0  0  0  0
  8  9  1  0  0  0  0
  9 10  1  0  0  0  0
 10 11  1  0  0  0  0
 11 12  1  0  0  0  0
 12 13  2  0  0  0  0
 13 14  1  0  0  0  0
 14 15  1  0  0  0  0
 14 16  2  0  0  0  0
 16 17  1  0  0  0  0
 17 18  2  0  0  0  0
 12 18  1  0  0  0  0
  4 19  1  0  0  0  0
  5 20  1  0  0  0  0
  6 21  1  0  0  0  0
  7 22  1  0  0  0  0
  8 23  1  0  0  0  0
  9 24  1  0  0  0  0
  9 27  1  0  0  0  0
 10 27  1  0  0  0  0
 10 27  1  0  0  0  0
 13 28  1  0  0  0  0
 15 29  1  0  0  0  0
 15 30  1  0  0  0  0
 15 31  1  0  0  0  0
 16 32  1  0  0  0  0
 17 33  1  0  0  0  0
 18 34  1  0  0  0  0
M  END
> <UNIQUE_SMILES>
CC1=CC=CC(=C1)OCCNC(=O)[N]2C=CC=C2

> <USER_SUPPLIED_SMILES>
O=C(N1C=CC=C1)NCCOC2=CC(C)=CC=C2

$$$$
42
APtclcactv03162116352D 0   0.00000     0.00000    42
 
 39 41  0  0  0  0  0  0  0  0999 V2000
    4.3211    0.2837    0.0000 O   0  0  0  0  0  0  0  0  0  0  0  0
    4.9889   -0.4606    0.0000 C   0  0  0  0  0  0  0  0  0  0  0  0
    4.6783   -1.4111    0.0000 N   0  0  0  0  0  0  0  0  0  0  0  0
    3.7321   -1.7158    0.0000 C   0  0  0  0  0  0  0  0  0  0  0  0
    2.8660   -1.2158    0.0000 C   0  0  0  0  0  0  0  0  0  0  0  0
    2.0000   -1.7158    0.0000 C   0  0  0  0  0  0  0  0  0  0  0  0
    2.0000   -2.7158    0.0000 C   0  0  0  0  0  0  0  0  0  0  0  0
    2.8660   -3.2158    0.0000 N   0  0  0  0  0  0  0  0  0  0  0  0
    3.7321   -2.7158    0.0000 C   0  0  0  0  0  0  0  0  0  0  0  0
    4.6783   -3.0206    0.0000 C   0  0  0  0  0  0  0  0  0  0  0  0
    5.2719   -2.2158    0.0000 C   0  0  0  0  0  0  0  0  0  0  0  0
    5.9674   -0.2744    0.0000 N   0  0  0  0  0  0  0  0  0  0  0  0
    6.2781    0.6961    0.0000 C   0  0  0  0  0  0  0  0  0  0  0  0
    7.2766    0.9024    0.0000 C   0  0  0  0  0  0  0  0  0  0  0  0
    7.5673    1.8529    0.0000 O   0  0  0  0  0  0  0  0  0  0  0  0
    8.5458    2.0591    0.0000 C   0  0  0  0  0  0  0  0  0  0  0  0
    9.2136    1.3148    0.0000 C   0  0  0  0  0  0  0  0  0  0  0  0
   10.1921    1.5210    0.0000 C   0  0  0  0  0  0  0  0  0  0  0  0
   10.8600    0.7767    0.0000 C   0  0  0  0  0  0  0  0  0  0  0  0
   10.5028    2.4715    0.0000 C   0  0  0  0  0  0  0  0  0  0  0  0
    9.8349    3.2158    0.0000 C   0  0  0  0  0  0  0  0  0  0  0  0
    8.8564    3.0096    0.0000 C   0  0  0  0  0  0  0  0  0  0  0  0
    2.8660   -0.5958    0.0000 H   0  0  0  0  0  0  0  0  0  0  0  0
    1.4631   -1.4058    0.0000 H   0  0  0  0  0  0  0  0  0  0  0  0
    1.4631   -3.0278    0.0000 H   0  0  0  0  0  0  0  0  0  0  0  0
    4.8709   -3.6099    0.0000 H   0  0  0  0  0  0  0  0  0  0  0  0
    5.8819   -2.2158    0.0000 H   0  0  0  0  0  0  0  0  0  0  0  0
    6.3815   -0.7158    0.0000 H   0  0  0  0  0  0  0  0  0  0  0  0
    6.2775    1.3158    0.0000 H   0  0  0  0  0  0  0  0  0  0  0  0
    5.6643    0.7835    0.0000 H   0  0  0  0  0  0  0  0  0  0  0  0
    7.2772    0.2827    0.0000 H   0  0  0  0  0  0  0  0  0  0  0  0
    7.8704    0.8150    0.0000 H   0  0  0  0  0  0  0  0  0  0  0  0
    9.0210    0.7275    0.0000 H   0  0  0  0  0  0  0  0  0  0  0  0
   10.3985    0.3627    0.0000 H   0  0  0  0  0  0  0  0  0  0  0  0
   11.2740    0.3153    0.0000 H   0  0  0  0  0  0  0  0  0  0  0  0
   11.3214    1.1908    0.0000 H   0  0  0  0  0  0  0  0  0  0  0  0
   11.1095    2.5994    0.0000 H   0  0  0  0  0  0  0  0  0  0  0  0
   10.0276    3.8052    0.0000 H   0  0  0  0  0  0  0  0  0  0  0  0
    8.4424    3.4711    0.0000 H   0  0  0  0  0  0  0  0  0  0  0  0
  1  2  2  0  0  0  0
  2  3  1  0  0  0  0
  3  4  1  0  0  0  0
  4  5  1  0  0  0  0
  5  6  2  0  0  0  0
  6  7  1  0  0  0  0
  7  8  2  0  0  0  0
  4  9  2  0  0  0  0
  8  9  1  0  0  0  0
  9 10  1  0  0  0  0
 10 11  2  0  0  0  0
  3 11  1  0  0  0  0
  2 12  1  0  0  0  0
 12 13  1  0  0  0  0
 13 14  1  0  0  0  0
 14 15  1  0  0  0  0
 15 16  1  0  0  0  0
 16 17  2  0  0  0  0
 17 18  1  0  0  0  0
 18 19  1  0  0  0  0
 18 20  2  0  0  0  0
 20 21  1  0  0  0  0
 21 22  2  0  0  0  0
 16 22  1  0  0  0  0
  5 23  1  0  0  0  0
  6 24  1  0  0  0  0
  7 27  1  0  0  0  0
 10 27  1  0  0  0  0
 11 27  1  0  0  0  0
 12 28  1  0  0  0  0
 13 29  1  0  0  0  0
 13 30  1  0  0  0  0
 14 31  1  0  0  0  0
 14 32  1  0  0  0  0
 17 33  1  0  0  0  0
 19 34  1  0  0  0  0
 19 35  1  0  0  0  0
 19 36  1  0  0  0  0
 20 37  1  0  0  0  0
 21 38  1  0  0  0  0
 22 39  1  0  0  0  0
M  END
> <UNIQUE_SMILES>
CC1=CC=CC(=C1)OCCNC(=O)[N]2C=CC3=C2C=CC=N3

> <USER_SUPPLIED_SMILES>
O=C(N1C(C=CC=N2)=C2C=C1)NCCOC3=CC(C)=CC=C3

$$$$
43
APtclcactv03162116352D 0   0.00000     0.00000    43
 
 33 34  0  0  0  0  0  0  0  0999 V2000
    4.5981    2.6488    0.0000 O   0  0  0  0  0  0  0  0  0  0  0  0
    5.4641    2.1488    0.0000 C   0  0  0  0  0  0  0  0  0  0  0  0
    6.3301    2.6488    0.0000 N   0  0  0  0  0  0  0  0  0  0  0  0
    6.4347    3.6433    0.0000 N   0  0  0  0  0  0  0  0  0  0  0  0
    7.4128    3.8512    0.0000 C   0  0  0  0  0  0  0  0  0  0  0  0
    7.9128    2.9852    0.0000 C   0  0  0  0  0  0  0  0  0  0  0  0
    7.2437    2.2420    0.0000 C   0  0  0  0  0  0  0  0  0  0  0  0
    5.4641    1.1488    0.0000 N   0  0  0  0  0  0  0  0  0  0  0  0
    4.5981    0.6488    0.0000 C   0  0  0  0  0  0  0  0  0  0  0  0
    4.5981   -0.3512    0.0000 C   0  0  0  0  0  0  0  0  0  0  0  0
    3.7321   -0.8512    0.0000 O   0  0  0  0  0  0  0  0  0  0  0  0
    3.7321   -1.8512    0.0000 C   0  0  0  0  0  0  0  0  0  0  0  0
    2.8660   -2.3512    0.0000 C   0  0  0  0  0  0  0  0  0  0  0  0
    2.8660   -3.3512    0.0000 C   0  0  0  0  0  0  0  0  0  0  0  0
    2.0000   -3.8512    0.0000 C   0  0  0  0  0  0  0  0  0  0  0  0
    3.7321   -3.8512    0.0000 C   0  0  0  0  0  0  0  0  0  0  0  0
    4.5981   -3.3512    0.0000 C   0  0  0  0  0  0  0  0  0  0  0  0
    4.5981   -2.3512    0.0000 C   0  0  0  0  0  0  0  0  0  0  0  0
    7.6650    4.4176    0.0000 H   0  0  0  0  0  0  0  0  0  0  0  0
    8.5294    2.9204    0.0000 H   0  0  0  0  0  0  0  0  0  0  0  0
    7.3727    1.6356    0.0000 H   0  0  0  0  0  0  0  0  0  0  0  0
    6.0010    0.8388    0.0000 H   0  0  0  0  0  0  0  0  0  0  0  0
    4.3860    1.2314    0.0000 H   0  0  0  0  0  0  0  0  0  0  0  0
    3.9875    0.5411    0.0000 H   0  0  0  0  0  0  0  0  0  0  0  0
    4.8101   -0.9338    0.0000 H   0  0  0  0  0  0  0  0  0  0  0  0
    5.2087   -0.2436    0.0000 H   0  0  0  0  0  0  0  0  0  0  0  0
    2.3291   -2.0412    0.0000 H   0  0  0  0  0  0  0  0  0  0  0  0
    1.6900   -3.3143    0.0000 H   0  0  0  0  0  0  0  0  0  0  0  0
    1.4631   -4.1612    0.0000 H   0  0  0  0  0  0  0  0  0  0  0  0
    2.3100   -4.3882    0.0000 H   0  0  0  0  0  0  0  0  0  0  0  0
    3.7321   -4.4712    0.0000 H   0  0  0  0  0  0  0  0  0  0  0  0
    5.1350   -3.6612    0.0000 H   0  0  0  0  0  0  0  0  0  0  0  0
    5.1350   -2.0412    0.0000 H   0  0  0  0  0  0  0  0  0  0  0  0
  1  2  2  0  0  0  0
  2  3  1  0  0  0  0
  3  4  1  0  0  0  0
  4  5  2  0  0  0  0
  5  6  1  0  0  0  0
  6  7  2  0  0  0  0
  3  7  1  0  0  0  0
  2  8  1  0  0  0  0
  8  9  1  0  0  0  0
  9 10  1  0  0  0  0
 10 11  1  0  0  0  0
 11 12  1  0  0  0  0
 12 13  2  0  0  0  0
 13 14  1  0  0  0  0
 14 15  1  0  0  0  0
 14 16  2  0  0  0  0
 16 17  1  0  0  0  0
 17 18  2  0  0  0  0
 12 18  1  0  0  0  0
  5 19  1  0  0  0  0
  6 20  1  0  0  0  0
  7 21  1  0  0  0  0
  8 22  1  0  0  0  0
  9 23  1  0  0  0  0
  9 24  1  0  0  0  0
 10 27  1  0  0  0  0
 10 27  1  0  0  0  0
 13 27  1  0  0  0  0
 15 28  1  0  0  0  0
 15 29  1  0  0  0  0
 15 30  1  0  0  0  0
 16 31  1  0  0  0  0
 17 32  1  0  0  0  0
 18 33  1  0  0  0  0
M  END
> <UNIQUE_SMILES>
CC1=CC=CC(=C1)OCCNC(=O)[N]2C=CC=N2

> <USER_SUPPLIED_SMILES>
O=C(N1N=CC=C1)NCCOC2=CC(C)=CC=C2

$$$$
44
APtclcactv03162116352D 0   0.00000     0.00000    44
 
 45 48  0  0  0  0  0  0  0  0999 V2000
   12.0031   -0.9854    0.0000 Br  0  0  0  0  0  0  0  0  0  0  0  0
   12.0031    0.0146    0.0000 C   0  0  0  0  0  0  0  0  0  0  0  0
   11.1370    0.5146    0.0000 C   0  0  0  0  0  0  0  0  0  0  0  0
   10.2710    0.0146    0.0000 O   0  0  0  0  0  0  0  0  0  0  0  0
    9.4050    0.5146    0.0000 C   0  0  0  0  0  0  0  0  0  0  0  0
    8.5390    0.0146    0.0000 C   0  0  0  0  0  0  0  0  0  0  0  0
    7.6729    0.5146    0.0000 N   0  0  0  0  0  0  0  0  0  0  0  0
    6.8069    0.0146    0.0000 C   0  0  0  0  0  0  0  0  0  0  0  0
    5.9409    0.5146    0.0000 C   0  0  0  0  0  0  0  0  0  0  0  0
    5.0749    0.0146    0.0000 C   0  0  0  0  0  0  0  0  0  0  0  0
    4.9718   -0.9741    0.0000 N   0  0  0  0  0  0  0  0  0  0  0  0
    4.0000   -1.1833    0.0000 C   0  0  0  0  0  0  0  0  0  0  0  0
    3.5000   -2.0493    0.0000 C   0  0  0  0  0  0  0  0  0  0  0  0
    2.5000   -2.0493    0.0000 C   0  0  0  0  0  0  0  0  0  0  0  0
    2.0000   -1.1833    0.0000 C   0  0  0  0  0  0  0  0  0  0  0  0
    2.5000   -0.3173    0.0000 C   0  0  0  0  0  0  0  0  0  0  0  0
    3.5000   -0.3173    0.0000 C   0  0  0  0  0  0  0  0  0  0  0  0
    4.1671    0.4198    0.0000 N   0  0  0  0  0  0  0  0  0  0  0  0
    8.5390   -0.9854    0.0000 O   0  0  0  0  0  0  0  0  0  0  0  0
   11.1370    1.5146    0.0000 C   0  0  0  0  0  0  0  0  0  0  0  0
   12.0031    2.0146    0.0000 C   0  0  0  0  0  0  0  0  0  0  0  0
   12.8691    1.5146    0.0000 C   0  0  0  0  0  0  0  0  0  0  0  0
   12.8691    0.5146    0.0000 C   0  0  0  0  0  0  0  0  0  0  0  0
   13.7630   -0.0200    0.0000 C   0  0  0  0  0  0  0  0  0  0  0  0
   14.6691    0.4938    0.0000 C   0  0  0  0  0  0  0  0  0  0  0  0
   14.6691    1.5355    0.0000 C   0  0  0  0  0  0  0  0  0  0  0  0
   13.7630    2.0493    0.0000 C   0  0  0  0  0  0  0  0  0  0  0  0
    9.8035    0.9896    0.0000 H   0  0  0  0  0  0  0  0  0  0  0  0
    9.0065    0.9896    0.0000 H   0  0  0  0  0  0  0  0  0  0  0  0
    7.6729    1.1346    0.0000 H   0  0  0  0  0  0  0  0  0  0  0  0
    6.4084   -0.4603    0.0000 H   0  0  0  0  0  0  0  0  0  0  0  0
    7.2054   -0.4603    0.0000 H   0  0  0  0  0  0  0  0  0  0  0  0
    6.3394    0.9896    0.0000 H   0  0  0  0  0  0  0  0  0  0  0  0
    5.5424    0.9896    0.0000 H   0  0  0  0  0  0  0  0  0  0  0  0
    3.8100   -2.5862    0.0000 H   0  0  0  0  0  0  0  0  0  0  0  0
    2.1900   -2.5862    0.0000 H   0  0  0  0  0  0  0  0  0  0  0  0
    1.3800   -1.1833    0.0000 H   0  0  0  0  0  0  0  0  0  0  0  0
    2.1900    0.2197    0.0000 H   0  0  0  0  0  0  0  0  0  0  0  0
    4.0392    1.0274    0.0000 H   0  0  0  0  0  0  0  0  0  0  0  0
   10.6001    1.8246    0.0000 H   0  0  0  0  0  0  0  0  0  0  0  0
   12.0031    2.6346    0.0000 H   0  0  0  0  0  0  0  0  0  0  0  0
   13.7559   -0.6400    0.0000 H   0  0  0  0  0  0  0  0  0  0  0  0
   15.2048    0.1818    0.0000 H   0  0  0  0  0  0  0  0  0  0  0  0
   15.2048    1.8475    0.0000 H   0  0  0  0  0  0  0  0  0  0  0  0
   13.7559    2.6693    0.0000 H   0  0  0  0  0  0  0  0  0  0  0  0
  1  2  1  0  0  0  0
  2  3  2  0  0  0  0
  3  4  1  0  0  0  0
  4  5  1  0  0  0  0
  5  6  1  0  0  0  0
  6  7  1  0  0  0  0
  7  8  1  0  0  0  0
  8  9  1  0  0  0  0
  9 10  1  0  0  0  0
 10 11  2  0  0  0  0
 11 12  1  0  0  0  0
 12 13  1  0  0  0  0
 13 14  2  0  0  0  0
 14 15  1  0  0  0  0
 15 16  2  0  0  0  0
 12 17  2  0  0  0  0
 16 17  1  0  0  0  0
 17 18  1  0  0  0  0
 10 18  1  0  0  0  0
  6 19  2  0  0  0  0
  3 20  1  0  0  0  0
 20 21  2  0  0  0  0
 21 22  1  0  0  0  0
 22 23  2  0  0  0  0
  2 23  1  0  0  0  0
 23 24  1  0  0  0  0
 24 27  2  0  0  0  0
 27 27  1  0  0  0  0
 27 27  2  0  0  0  0
 22 27  1  0  0  0  0
  5 28  1  0  0  0  0
  5 29  1  0  0  0  0
  7 30  1  0  0  0  0
  8 31  1  0  0  0  0
  8 32  1  0  0  0  0
  9 33  1  0  0  0  0
  9 34  1  0  0  0  0
 13 35  1  0  0  0  0
 14 36  1  0  0  0  0
 15 37  1  0  0  0  0
 16 38  1  0  0  0  0
 18 39  1  0  0  0  0
 20 40  1  0  0  0  0
 21 41  1  0  0  0  0
 24 42  1  0  0  0  0
 27 43  1  0  0  0  0
 27 44  1  0  0  0  0
 27 45  1  0  0  0  0
M  END
> <UNIQUE_SMILES>
BrC1=C(OCC(=O)NCCC2=NC3=C([NH]2)C=CC=C3)C=CC4=C1C=CC=C4

> <USER_SUPPLIED_SMILES>
BrC1=C(OCC(NCCC2=NC(C=CC=C3)=C3N2)=O)C=CC4=C1C=CC=C4

$$$$
45
APtclcactv03162116352D 0   0.00000     0.00000    45
 
 39 41  0  0  0  0  0  0  0  0999 V2000
    6.3301    2.3100    0.0000 N   0  0  0  0  0  0  0  0  0  0  0  0
    6.3301    1.3100    0.0000 C   0  0  0  0  0  0  0  0  0  0  0  0
    6.3301    0.3100    0.0000 C   0  0  0  0  0  0  0  0  0  0  0  0
    7.1962   -0.1900    0.0000 N   0  0  0  0  0  0  0  0  0  0  0  0
    7.1962   -1.1900    0.0000 C   0  0  0  0  0  0  0  0  0  0  0  0
    8.0622   -1.6900    0.0000 N   0  0  0  0  0  0  0  0  0  0  0  0
    8.9282   -1.1900    0.0000 C   0  0  0  0  0  0  0  0  0  0  0  0
    9.8417   -1.5967    0.0000 C   0  0  0  0  0  0  0  0  0  0  0  0
   10.5109   -0.8536    0.0000 C   0  0  0  0  0  0  0  0  0  0  0  0
   10.0109    0.0124    0.0000 C   0  0  0  0  0  0  0  0  0  0  0  0
    9.0327   -0.1955    0.0000 C   0  0  0  0  0  0  0  0  0  0  0  0
    6.3301   -1.6900    0.0000 N   0  0  0  0  0  0  0  0  0  0  0  0
    5.4641   -1.1900    0.0000 C   0  0  0  0  0  0  0  0  0  0  0  0
    4.5981   -1.6900    0.0000 N   0  0  0  0  0  0  0  0  0  0  0  0
    3.7321   -1.1900    0.0000 C   0  0  0  0  0  0  0  0  0  0  0  0
    3.7321   -0.1900    0.0000 C   0  0  0  0  0  0  0  0  0  0  0  0
    2.8660    0.3100    0.0000 C   0  0  0  0  0  0  0  0  0  0  0  0
    2.8660    1.3100    0.0000 N   0  3  0  0  0  0  0  0  0  0  0  0
    2.0000    1.8100    0.0000 O   0  5  0  0  0  0  0  0  0  0  0  0
    3.7321    1.8100    0.0000 O   0  0  0  0  0  0  0  0  0  0  0  0
    2.0000   -0.1900    0.0000 C   0  0  0  0  0  0  0  0  0  0  0  0
    2.0000   -1.1900    0.0000 C   0  0  0  0  0  0  0  0  0  0  0  0
    2.8660   -1.6900    0.0000 C   0  0  0  0  0  0  0  0  0  0  0  0
    5.4641   -0.1900    0.0000 N   0  0  0  0  0  0  0  0  0  0  0  0
    8.0622   -2.3100    0.0000 H   0  0  0  0  0  0  0  0  0  0  0  0
    8.9607   -1.8092    0.0000 H   0  0  0  0  0  0  0  0  0  0  0  0
    9.5317   -2.1337    0.0000 H   0  0  0  0  0  0  0  0  0  0  0  0
   10.3433   -1.9612    0.0000 H   0  0  0  0  0  0  0  0  0  0  0  0
   10.9277   -1.3143    0.0000 H   0  0  0  0  0  0  0  0  0  0  0  0
   11.0127   -0.4892    0.0000 H   0  0  0  0  0  0  0  0  0  0  0  0
   10.5773    0.2746    0.0000 H   0  0  0  0  0  0  0  0  0  0  0  0
    9.8193    0.6021    0.0000 H   0  0  0  0  0  0  0  0  0  0  0  0
    8.9679    0.4211    0.0000 H   0  0  0  0  0  0  0  0  0  0  0  0
    8.4127   -0.1955    0.0000 H   0  0  0  0  0  0  0  0  0  0  0  0
    4.5981   -2.3100    0.0000 H   0  0  0  0  0  0  0  0  0  0  0  0
    4.2790    0.1200    0.0000 H   0  0  0  0  0  0  0  0  0  0  0  0
    1.4631    0.1200    0.0000 H   0  0  0  0  0  0  0  0  0  0  0  0
    1.4631   -1.5000    0.0000 H   0  0  0  0  0  0  0  0  0  0  0  0
    2.8660   -2.3100    0.0000 H   0  0  0  0  0  0  0  0  0  0  0  0
  1  2  3  0  0  0  0
  2  3  1  0  0  0  0
  3  4  2  0  0  0  0
  4  5  1  0  0  0  0
  5  6  1  0  0  0  0
  6  7  1  0  0  0  0
  7  8  1  0  0  0  0
  8  9  1  0  0  0  0
  9 10  1  0  0  0  0
 10 11  1  0  0  0  0
  7 11  1  0  0  0  0
  5 12  2  0  0  0  0
 12 13  1  0  0  0  0
 13 14  1  0  0  0  0
 14 15  1  0  0  0  0
 15 16  2  0  0  0  0
 16 17  1  0  0  0  0
 17 18  1  0  0  0  0
 18 19  1  0  0  0  0
 18 20  2  0  0  0  0
 17 21  2  0  0  0  0
 21 22  1  0  0  0  0
 22 23  2  0  0  0  0
 15 23  1  0  0  0  0
 13 24  2  0  0  0  0
  3 24  1  0  0  0  0
  6 27  1  0  0  0  0
  7 27  1  0  0  0  0
  8 27  1  0  0  0  0
  8 28  1  0  0  0  0
  9 29  1  0  0  0  0
  9 30  1  0  0  0  0
 10 31  1  0  0  0  0
 10 32  1  0  0  0  0
 11 33  1  0  0  0  0
 11 34  1  0  0  0  0
 14 35  1  0  0  0  0
 16 36  1  0  0  0  0
 21 37  1  0  0  0  0
 22 38  1  0  0  0  0
 23 39  1  0  0  0  0
M  CHG  2  18   1  19  -1
M  END
> <UNIQUE_SMILES>
[O-][N+](=O)C1=CC=CC(=C1)NC2=NC(=NC(=N2)NC3CCCC3)C#N

> <USER_SUPPLIED_SMILES>
N#CC1=NC(NC2CCCC2)=NC(NC3=CC([N+]([O-])=O)=CC=C3)=N1

$$$$
46
APtclcactv03162116352D 0   0.00000     0.00000    46
 
 37 39  0  0  0  0  0  0  0  0999 V2000
    2.8660    1.3100    0.0000 F   0  0  0  0  0  0  0  0  0  0  0  0
    2.8660    0.3100    0.0000 C   0  0  0  0  0  0  0  0  0  0  0  0
    2.0000   -0.1900    0.0000 C   0  0  0  0  0  0  0  0  0  0  0  0
    2.0000   -1.1900    0.0000 C   0  0  0  0  0  0  0  0  0  0  0  0
    2.8660   -1.6900    0.0000 C   0  0  0  0  0  0  0  0  0  0  0  0
    3.7321   -1.1900    0.0000 C   0  0  0  0  0  0  0  0  0  0  0  0
    4.5981   -1.6900    0.0000 N   0  0  0  0  0  0  0  0  0  0  0  0
    5.4641   -1.1900    0.0000 C   0  0  0  0  0  0  0  0  0  0  0  0
    5.4641   -0.1900    0.0000 N   0  0  0  0  0  0  0  0  0  0  0  0
    6.3301    0.3100    0.0000 C   0  0  0  0  0  0  0  0  0  0  0  0
    6.3301    1.3100    0.0000 C   0  0  0  0  0  0  0  0  0  0  0  0
    6.3301    2.3100    0.0000 N   0  0  0  0  0  0  0  0  0  0  0  0
    7.1962   -0.1900    0.0000 N   0  0  0  0  0  0  0  0  0  0  0  0
    7.1962   -1.1900    0.0000 C   0  0  0  0  0  0  0  0  0  0  0  0
    8.0622   -1.6900    0.0000 N   0  0  0  0  0  0  0  0  0  0  0  0
    8.9282   -1.1900    0.0000 C   0  0  0  0  0  0  0  0  0  0  0  0
    9.8417   -1.5967    0.0000 C   0  0  0  0  0  0  0  0  0  0  0  0
   10.5109   -0.8536    0.0000 C   0  0  0  0  0  0  0  0  0  0  0  0
   10.0109    0.0124    0.0000 C   0  0  0  0  0  0  0  0  0  0  0  0
    9.0327   -0.1955    0.0000 C   0  0  0  0  0  0  0  0  0  0  0  0
    6.3301   -1.6900    0.0000 N   0  0  0  0  0  0  0  0  0  0  0  0
    3.7321   -0.1900    0.0000 C   0  0  0  0  0  0  0  0  0  0  0  0
    1.4631    0.1200    0.0000 H   0  0  0  0  0  0  0  0  0  0  0  0
    1.4631   -1.5000    0.0000 H   0  0  0  0  0  0  0  0  0  0  0  0
    2.8660   -2.3100    0.0000 H   0  0  0  0  0  0  0  0  0  0  0  0
    4.5981   -2.3100    0.0000 H   0  0  0  0  0  0  0  0  0  0  0  0
    8.0622   -2.3100    0.0000 H   0  0  0  0  0  0  0  0  0  0  0  0
    8.9607   -1.8092    0.0000 H   0  0  0  0  0  0  0  0  0  0  0  0
    9.5317   -2.1337    0.0000 H   0  0  0  0  0  0  0  0  0  0  0  0
   10.3433   -1.9612    0.0000 H   0  0  0  0  0  0  0  0  0  0  0  0
   10.9277   -1.3143    0.0000 H   0  0  0  0  0  0  0  0  0  0  0  0
   11.0127   -0.4892    0.0000 H   0  0  0  0  0  0  0  0  0  0  0  0
   10.5773    0.2746    0.0000 H   0  0  0  0  0  0  0  0  0  0  0  0
    9.8193    0.6021    0.0000 H   0  0  0  0  0  0  0  0  0  0  0  0
    8.9679    0.4211    0.0000 H   0  0  0  0  0  0  0  0  0  0  0  0
    8.4127   -0.1955    0.0000 H   0  0  0  0  0  0  0  0  0  0  0  0
    4.2790    0.1200    0.0000 H   0  0  0  0  0  0  0  0  0  0  0  0
  1  2  1  0  0  0  0
  2  3  2  0  0  0  0
  3  4  1  0  0  0  0
  4  5  2  0  0  0  0
  5  6  1  0  0  0  0
  6  7  1  0  0  0  0
  7  8  1  0  0  0  0
  8  9  2  0  0  0  0
  9 10  1  0  0  0  0
 10 11  1  0  0  0  0
 11 12  3  0  0  0  0
 10 13  2  0  0  0  0
 13 14  1  0  0  0  0
 14 15  1  0  0  0  0
 15 16  1  0  0  0  0
 16 17  1  0  0  0  0
 17 18  1  0  0  0  0
 18 19  1  0  0  0  0
 19 20  1  0  0  0  0
 16 20  1  0  0  0  0
 14 21  2  0  0  0  0
  8 21  1  0  0  0  0
  6 22  2  0  0  0  0
  2 22  1  0  0  0  0
  3 23  1  0  0  0  0
  4 24  1  0  0  0  0
  5 27  1  0  0  0  0
  7 27  1  0  0  0  0
 15 27  1  0  0  0  0
 16 28  1  0  0  0  0
 17 29  1  0  0  0  0
 17 30  1  0  0  0  0
 18 31  1  0  0  0  0
 18 32  1  0  0  0  0
 19 33  1  0  0  0  0
 19 34  1  0  0  0  0
 20 35  1  0  0  0  0
 20 36  1  0  0  0  0
 22 37  1  0  0  0  0
M  END
> <UNIQUE_SMILES>
FC1=CC=CC(=C1)NC2=NC(=NC(=N2)NC3CCCC3)C#N

> <USER_SUPPLIED_SMILES>
FC1=CC=CC(NC2=NC(C#N)=NC(NC3CCCC3)=N2)=C1

$$$$
47
APtclcactv03162116352D 0   0.00000     0.00000    47
 
 37 39  0  0  0  0  0  0  0  0999 V2000
    2.8660    1.3100    0.0000 Cl  0  0  0  0  0  0  0  0  0  0  0  0
    2.8660    0.3100    0.0000 C   0  0  0  0  0  0  0  0  0  0  0  0
    2.0000   -0.1900    0.0000 C   0  0  0  0  0  0  0  0  0  0  0  0
    2.0000   -1.1900    0.0000 C   0  0  0  0  0  0  0  0  0  0  0  0
    2.8660   -1.6900    0.0000 C   0  0  0  0  0  0  0  0  0  0  0  0
    3.7321   -1.1900    0.0000 C   0  0  0  0  0  0  0  0  0  0  0  0
    4.5981   -1.6900    0.0000 N   0  0  0  0  0  0  0  0  0  0  0  0
    5.4641   -1.1900    0.0000 C   0  0  0  0  0  0  0  0  0  0  0  0
    5.4641   -0.1900    0.0000 N   0  0  0  0  0  0  0  0  0  0  0  0
    6.3301    0.3100    0.0000 C   0  0  0  0  0  0  0  0  0  0  0  0
    6.3301    1.3100    0.0000 C   0  0  0  0  0  0  0  0  0  0  0  0
    6.3301    2.3100    0.0000 N   0  0  0  0  0  0  0  0  0  0  0  0
    7.1962   -0.1900    0.0000 N   0  0  0  0  0  0  0  0  0  0  0  0
    7.1962   -1.1900    0.0000 C   0  0  0  0  0  0  0  0  0  0  0  0
    8.0622   -1.6900    0.0000 N   0  0  0  0  0  0  0  0  0  0  0  0
    8.9282   -1.1900    0.0000 C   0  0  0  0  0  0  0  0  0  0  0  0
    9.8417   -1.5967    0.0000 C   0  0  0  0  0  0  0  0  0  0  0  0
   10.5109   -0.8536    0.0000 C   0  0  0  0  0  0  0  0  0  0  0  0
   10.0109    0.0124    0.0000 C   0  0  0  0  0  0  0  0  0  0  0  0
    9.0327   -0.1955    0.0000 C   0  0  0  0  0  0  0  0  0  0  0  0
    6.3301   -1.6900    0.0000 N   0  0  0  0  0  0  0  0  0  0  0  0
    3.7321   -0.1900    0.0000 C   0  0  0  0  0  0  0  0  0  0  0  0
    1.4631    0.1200    0.0000 H   0  0  0  0  0  0  0  0  0  0  0  0
    1.4631   -1.5000    0.0000 H   0  0  0  0  0  0  0  0  0  0  0  0
    2.8660   -2.3100    0.0000 H   0  0  0  0  0  0  0  0  0  0  0  0
    4.5981   -2.3100    0.0000 H   0  0  0  0  0  0  0  0  0  0  0  0
    8.0622   -2.3100    0.0000 H   0  0  0  0  0  0  0  0  0  0  0  0
    8.9607   -1.8092    0.0000 H   0  0  0  0  0  0  0  0  0  0  0  0
    9.5317   -2.1337    0.0000 H   0  0  0  0  0  0  0  0  0  0  0  0
   10.3433   -1.9612    0.0000 H   0  0  0  0  0  0  0  0  0  0  0  0
   10.9277   -1.3143    0.0000 H   0  0  0  0  0  0  0  0  0  0  0  0
   11.0127   -0.4892    0.0000 H   0  0  0  0  0  0  0  0  0  0  0  0
   10.5773    0.2746    0.0000 H   0  0  0  0  0  0  0  0  0  0  0  0
    9.8193    0.6021    0.0000 H   0  0  0  0  0  0  0  0  0  0  0  0
    8.9679    0.4211    0.0000 H   0  0  0  0  0  0  0  0  0  0  0  0
    8.4127   -0.1955    0.0000 H   0  0  0  0  0  0  0  0  0  0  0  0
    4.2790    0.1200    0.0000 H   0  0  0  0  0  0  0  0  0  0  0  0
  1  2  1  0  0  0  0
  2  3  2  0  0  0  0
  3  4  1  0  0  0  0
  4  5  2  0  0  0  0
  5  6  1  0  0  0  0
  6  7  1  0  0  0  0
  7  8  1  0  0  0  0
  8  9  2  0  0  0  0
  9 10  1  0  0  0  0
 10 11  1  0  0  0  0
 11 12  3  0  0  0  0
 10 13  2  0  0  0  0
 13 14  1  0  0  0  0
 14 15  1  0  0  0  0
 15 16  1  0  0  0  0
 16 17  1  0  0  0  0
 17 18  1  0  0  0  0
 18 19  1  0  0  0  0
 19 20  1  0  0  0  0
 16 20  1  0  0  0  0
 14 21  2  0  0  0  0
  8 21  1  0  0  0  0
  6 22  2  0  0  0  0
  2 22  1  0  0  0  0
  3 23  1  0  0  0  0
  4 24  1  0  0  0  0
  5 27  1  0  0  0  0
  7 27  1  0  0  0  0
 15 27  1  0  0  0  0
 16 28  1  0  0  0  0
 17 29  1  0  0  0  0
 17 30  1  0  0  0  0
 18 31  1  0  0  0  0
 18 32  1  0  0  0  0
 19 33  1  0  0  0  0
 19 34  1  0  0  0  0
 20 35  1  0  0  0  0
 20 36  1  0  0  0  0
 22 37  1  0  0  0  0
M  END
> <UNIQUE_SMILES>
ClC1=CC=CC(=C1)NC2=NC(=NC(=N2)NC3CCCC3)C#N

> <USER_SUPPLIED_SMILES>
ClC1=CC=CC(NC2=NC(C#N)=NC(NC3CCCC3)=N2)=C1

$$$$
48
APtclcactv03162116352D 0   0.00000     0.00000    48
 
 37 39  0  0  0  0  0  0  0  0999 V2000
    2.8660    1.3100    0.0000 Br  0  0  0  0  0  0  0  0  0  0  0  0
    2.8660    0.3100    0.0000 C   0  0  0  0  0  0  0  0  0  0  0  0
    2.0000   -0.1900    0.0000 C   0  0  0  0  0  0  0  0  0  0  0  0
    2.0000   -1.1900    0.0000 C   0  0  0  0  0  0  0  0  0  0  0  0
    2.8660   -1.6900    0.0000 C   0  0  0  0  0  0  0  0  0  0  0  0
    3.7321   -1.1900    0.0000 C   0  0  0  0  0  0  0  0  0  0  0  0
    4.5981   -1.6900    0.0000 N   0  0  0  0  0  0  0  0  0  0  0  0
    5.4641   -1.1900    0.0000 C   0  0  0  0  0  0  0  0  0  0  0  0
    5.4641   -0.1900    0.0000 N   0  0  0  0  0  0  0  0  0  0  0  0
    6.3301    0.3100    0.0000 C   0  0  0  0  0  0  0  0  0  0  0  0
    6.3301    1.3100    0.0000 C   0  0  0  0  0  0  0  0  0  0  0  0
    6.3301    2.3100    0.0000 N   0  0  0  0  0  0  0  0  0  0  0  0
    7.1962   -0.1900    0.0000 N   0  0  0  0  0  0  0  0  0  0  0  0
    7.1962   -1.1900    0.0000 C   0  0  0  0  0  0  0  0  0  0  0  0
    8.0622   -1.6900    0.0000 N   0  0  0  0  0  0  0  0  0  0  0  0
    8.9282   -1.1900    0.0000 C   0  0  0  0  0  0  0  0  0  0  0  0
    9.8417   -1.5967    0.0000 C   0  0  0  0  0  0  0  0  0  0  0  0
   10.5109   -0.8536    0.0000 C   0  0  0  0  0  0  0  0  0  0  0  0
   10.0109    0.0124    0.0000 C   0  0  0  0  0  0  0  0  0  0  0  0
    9.0327   -0.1955    0.0000 C   0  0  0  0  0  0  0  0  0  0  0  0
    6.3301   -1.6900    0.0000 N   0  0  0  0  0  0  0  0  0  0  0  0
    3.7321   -0.1900    0.0000 C   0  0  0  0  0  0  0  0  0  0  0  0
    1.4631    0.1200    0.0000 H   0  0  0  0  0  0  0  0  0  0  0  0
    1.4631   -1.5000    0.0000 H   0  0  0  0  0  0  0  0  0  0  0  0
    2.8660   -2.3100    0.0000 H   0  0  0  0  0  0  0  0  0  0  0  0
    4.5981   -2.3100    0.0000 H   0  0  0  0  0  0  0  0  0  0  0  0
    8.0622   -2.3100    0.0000 H   0  0  0  0  0  0  0  0  0  0  0  0
    8.9607   -1.8092    0.0000 H   0  0  0  0  0  0  0  0  0  0  0  0
    9.5317   -2.1337    0.0000 H   0  0  0  0  0  0  0  0  0  0  0  0
   10.3433   -1.9612    0.0000 H   0  0  0  0  0  0  0  0  0  0  0  0
   10.9277   -1.3143    0.0000 H   0  0  0  0  0  0  0  0  0  0  0  0
   11.0127   -0.4892    0.0000 H   0  0  0  0  0  0  0  0  0  0  0  0
   10.5773    0.2746    0.0000 H   0  0  0  0  0  0  0  0  0  0  0  0
    9.8193    0.6021    0.0000 H   0  0  0  0  0  0  0  0  0  0  0  0
    8.9679    0.4211    0.0000 H   0  0  0  0  0  0  0  0  0  0  0  0
    8.4127   -0.1955    0.0000 H   0  0  0  0  0  0  0  0  0  0  0  0
    4.2790    0.1200    0.0000 H   0  0  0  0  0  0  0  0  0  0  0  0
  1  2  1  0  0  0  0
  2  3  2  0  0  0  0
  3  4  1  0  0  0  0
  4  5  2  0  0  0  0
  5  6  1  0  0  0  0
  6  7  1  0  0  0  0
  7  8  1  0  0  0  0
  8  9  2  0  0  0  0
  9 10  1  0  0  0  0
 10 11  1  0  0  0  0
 11 12  3  0  0  0  0
 10 13  2  0  0  0  0
 13 14  1  0  0  0  0
 14 15  1  0  0  0  0
 15 16  1  0  0  0  0
 16 17  1  0  0  0  0
 17 18  1  0  0  0  0
 18 19  1  0  0  0  0
 19 20  1  0  0  0  0
 16 20  1  0  0  0  0
 14 21  2  0  0  0  0
  8 21  1  0  0  0  0
  6 22  2  0  0  0  0
  2 22  1  0  0  0  0
  3 23  1  0  0  0  0
  4 24  1  0  0  0  0
  5 27  1  0  0  0  0
  7 27  1  0  0  0  0
 15 27  1  0  0  0  0
 16 28  1  0  0  0  0
 17 29  1  0  0  0  0
 17 30  1  0  0  0  0
 18 31  1  0  0  0  0
 18 32  1  0  0  0  0
 19 33  1  0  0  0  0
 19 34  1  0  0  0  0
 20 35  1  0  0  0  0
 20 36  1  0  0  0  0
 22 37  1  0  0  0  0
M  END
> <UNIQUE_SMILES>
BrC1=CC=CC(=C1)NC2=NC(=NC(=N2)NC3CCCC3)C#N

> <USER_SUPPLIED_SMILES>
BrC1=CC=CC(NC2=NC(C#N)=NC(NC3CCCC3)=N2)=C1

$$$$
49
APtclcactv03162116352D 0   0.00000     0.00000    49
 
 37 39  0  0  0  0  0  0  0  0999 V2000
    2.0000    0.3100    0.0000 F   0  0  0  0  0  0  0  0  0  0  0  0
    2.8660   -0.1900    0.0000 C   0  0  0  0  0  0  0  0  0  0  0  0
    2.8660   -1.1900    0.0000 C   0  0  0  0  0  0  0  0  0  0  0  0
    3.7321   -1.6900    0.0000 C   0  0  0  0  0  0  0  0  0  0  0  0
    3.7321    0.3100    0.0000 C   0  0  0  0  0  0  0  0  0  0  0  0
    4.5981   -0.1900    0.0000 C   0  0  0  0  0  0  0  0  0  0  0  0
    4.5981   -1.1900    0.0000 C   0  0  0  0  0  0  0  0  0  0  0  0
    5.4641   -1.6900    0.0000 N   0  0  0  0  0  0  0  0  0  0  0  0
    6.3301   -1.1900    0.0000 C   0  0  0  0  0  0  0  0  0  0  0  0
    6.3301   -0.1900    0.0000 N   0  0  0  0  0  0  0  0  0  0  0  0
    7.1962    0.3100    0.0000 C   0  0  0  0  0  0  0  0  0  0  0  0
    7.1962    1.3100    0.0000 C   0  0  0  0  0  0  0  0  0  0  0  0
    7.1962    2.3100    0.0000 N   0  0  0  0  0  0  0  0  0  0  0  0
    8.0622   -0.1900    0.0000 N   0  0  0  0  0  0  0  0  0  0  0  0
    8.0622   -1.1900    0.0000 C   0  0  0  0  0  0  0  0  0  0  0  0
    8.9282   -1.6900    0.0000 N   0  0  0  0  0  0  0  0  0  0  0  0
    9.7942   -1.1900    0.0000 C   0  0  0  0  0  0  0  0  0  0  0  0
   10.7078   -1.5967    0.0000 C   0  0  0  0  0  0  0  0  0  0  0  0
   11.3769   -0.8536    0.0000 C   0  0  0  0  0  0  0  0  0  0  0  0
   10.8769    0.0124    0.0000 C   0  0  0  0  0  0  0  0  0  0  0  0
    9.8988   -0.1955    0.0000 C   0  0  0  0  0  0  0  0  0  0  0  0
    7.1962   -1.6900    0.0000 N   0  0  0  0  0  0  0  0  0  0  0  0
    2.3291   -1.5000    0.0000 H   0  0  0  0  0  0  0  0  0  0  0  0
    3.7321   -2.3100    0.0000 H   0  0  0  0  0  0  0  0  0  0  0  0
    3.7321    0.9300    0.0000 H   0  0  0  0  0  0  0  0  0  0  0  0
    5.1350    0.1200    0.0000 H   0  0  0  0  0  0  0  0  0  0  0  0
    5.4641   -2.3100    0.0000 H   0  0  0  0  0  0  0  0  0  0  0  0
    8.9282   -2.3100    0.0000 H   0  0  0  0  0  0  0  0  0  0  0  0
    9.2743   -0.8523    0.0000 H   0  0  0  0  0  0  0  0  0  0  0  0
   10.3978   -2.1337    0.0000 H   0  0  0  0  0  0  0  0  0  0  0  0
   11.2094   -1.9612    0.0000 H   0  0  0  0  0  0  0  0  0  0  0  0
   11.7918   -1.3143    0.0000 H   0  0  0  0  0  0  0  0  0  0  0  0
   11.8785   -0.4892    0.0000 H   0  0  0  0  0  0  0  0  0  0  0  0
   11.4433    0.2746    0.0000 H   0  0  0  0  0  0  0  0  0  0  0  0
   10.6853    0.6021    0.0000 H   0  0  0  0  0  0  0  0  0  0  0  0
    9.8339    0.4211    0.0000 H   0  0  0  0  0  0  0  0  0  0  0  0
    9.2788   -0.1955    0.0000 H   0  0  0  0  0  0  0  0  0  0  0  0
  1  2  1  0  0  0  0
  2  3  1  0  0  0  0
  3  4  2  0  0  0  0
  2  5  2  0  0  0  0
  5  6  1  0  0  0  0
  6  7  2  0  0  0  0
  4  7  1  0  0  0  0
  7  8  1  0  0  0  0
  8  9  1  0  0  0  0
  9 10  2  0  0  0  0
 10 11  1  0  0  0  0
 11 12  1  0  0  0  0
 12 13  3  0  0  0  0
 11 14  2  0  0  0  0
 14 15  1  0  0  0  0
 15 16  1  0  0  0  0
 16 17  1  0  0  0  0
 17 18  1  0  0  0  0
 18 19  1  0  0  0  0
 19 20  1  0  0  0  0
 20 21  1  0  0  0  0
 17 21  1  0  0  0  0
 15 22  2  0  0  0  0
  9 22  1  0  0  0  0
  3 23  1  0  0  0  0
  4 24  1  0  0  0  0
  5 27  1  0  0  0  0
  6 27  1  0  0  0  0
  8 27  1  0  0  0  0
 16 28  1  0  0  0  0
 17 29  1  0  0  0  0
 18 30  1  0  0  0  0
 18 31  1  0  0  0  0
 19 32  1  0  0  0  0
 19 33  1  0  0  0  0
 20 34  1  0  0  0  0
 20 35  1  0  0  0  0
 21 36  1  0  0  0  0
 21 37  1  0  0  0  0
M  END
> <UNIQUE_SMILES>
FC1=CC=C(NC2=NC(=NC(=N2)NC3CCCC3)C#N)C=C1

> <USER_SUPPLIED_SMILES>
FC(C=C1)=CC=C1NC2=NC(C#N)=NC(NC3CCCC3)=N2

$$$$
52
APtclcactv03162116352D 0   0.00000     0.00000    50
 
 40 42  0  0  0  0  0  0  0  0999 V2000
    6.3301    2.3100    0.0000 N   0  0  0  0  0  0  0  0  0  0  0  0
    6.3301    1.3100    0.0000 C   0  0  0  0  0  0  0  0  0  0  0  0
    6.3301    0.3100    0.0000 C   0  0  0  0  0  0  0  0  0  0  0  0
    7.1962   -0.1900    0.0000 N   0  0  0  0  0  0  0  0  0  0  0  0
    7.1962   -1.1900    0.0000 C   0  0  0  0  0  0  0  0  0  0  0  0
    8.0622   -1.6900    0.0000 N   0  0  0  0  0  0  0  0  0  0  0  0
    8.9282   -1.1900    0.0000 C   0  0  0  0  0  0  0  0  0  0  0  0
    9.8417   -1.5967    0.0000 C   0  0  0  0  0  0  0  0  0  0  0  0
   10.5109   -0.8536    0.0000 C   0  0  0  0  0  0  0  0  0  0  0  0
   10.0109    0.0124    0.0000 C   0  0  0  0  0  0  0  0  0  0  0  0
    9.0327   -0.1955    0.0000 C   0  0  0  0  0  0  0  0  0  0  0  0
    6.3301   -1.6900    0.0000 N   0  0  0  0  0  0  0  0  0  0  0  0
    5.4641   -1.1900    0.0000 C   0  0  0  0  0  0  0  0  0  0  0  0
    4.5981   -1.6900    0.0000 N   0  0  0  0  0  0  0  0  0  0  0  0
    3.7321   -1.1900    0.0000 C   0  0  0  0  0  0  0  0  0  0  0  0
    3.7321   -0.1900    0.0000 C   0  0  0  0  0  0  0  0  0  0  0  0
    2.8660    0.3100    0.0000 C   0  0  0  0  0  0  0  0  0  0  0  0
    2.8660    1.3100    0.0000 C   0  0  0  0  0  0  0  0  0  0  0  0
    2.0000   -0.1900    0.0000 C   0  0  0  0  0  0  0  0  0  0  0  0
    2.0000   -1.1900    0.0000 C   0  0  0  0  0  0  0  0  0  0  0  0
    2.8660   -1.6900    0.0000 C   0  0  0  0  0  0  0  0  0  0  0  0
    5.4641   -0.1900    0.0000 N   0  0  0  0  0  0  0  0  0  0  0  0
    8.0622   -2.3100    0.0000 H   0  0  0  0  0  0  0  0  0  0  0  0
    8.9607   -1.8092    0.0000 H   0  0  0  0  0  0  0  0  0  0  0  0
    9.5317   -2.1337    0.0000 H   0  0  0  0  0  0  0  0  0  0  0  0
   10.3433   -1.9612    0.0000 H   0  0  0  0  0  0  0  0  0  0  0  0
   10.9277   -1.3143    0.0000 H   0  0  0  0  0  0  0  0  0  0  0  0
   11.0127   -0.4892    0.0000 H   0  0  0  0  0  0  0  0  0  0  0  0
   10.5773    0.2746    0.0000 H   0  0  0  0  0  0  0  0  0  0  0  0
    9.8193    0.6021    0.0000 H   0  0  0  0  0  0  0  0  0  0  0  0
    8.9679    0.4211    0.0000 H   0  0  0  0  0  0  0  0  0  0  0  0
    8.4127   -0.1955    0.0000 H   0  0  0  0  0  0  0  0  0  0  0  0
    4.5981   -2.3100    0.0000 H   0  0  0  0  0  0  0  0  0  0  0  0
    4.2790    0.1200    0.0000 H   0  0  0  0  0  0  0  0  0  0  0  0
    3.4860    1.3100    0.0000 H   0  0  0  0  0  0  0  0  0  0  0  0
    2.8660    1.9300    0.0000 H   0  0  0  0  0  0  0  0  0  0  0  0
    2.2460    1.3100    0.0000 H   0  0  0  0  0  0  0  0  0  0  0  0
    1.4631    0.1200    0.0000 H   0  0  0  0  0  0  0  0  0  0  0  0
    1.4631   -1.5000    0.0000 H   0  0  0  0  0  0  0  0  0  0  0  0
    2.8660   -2.3100    0.0000 H   0  0  0  0  0  0  0  0  0  0  0  0
  1  2  3  0  0  0  0
  2  3  1  0  0  0  0
  3  4  2  0  0  0  0
  4  5  1  0  0  0  0
  5  6  1  0  0  0  0
  6  7  1  0  0  0  0
  7  8  1  0  0  0  0
  8  9  1  0  0  0  0
  9 10  1  0  0  0  0
 10 11  1  0  0  0  0
  7 11  1  0  0  0  0
  5 12  2  0  0  0  0
 12 13  1  0  0  0  0
 13 14  1  0  0  0  0
 14 15  1  0  0  0  0
 15 16  2  0  0  0  0
 16 17  1  0  0  0  0
 17 18  1  0  0  0  0
 17 19  2  0  0  0  0
 19 20  1  0  0  0  0
 20 21  2  0  0  0  0
 15 21  1  0  0  0  0
 13 22  2  0  0  0  0
  3 22  1  0  0  0  0
  6 23  1  0  0  0  0
  7 24  1  0  0  0  0
  8 27  1  0  0  0  0
  8 27  1  0  0  0  0
  9 27  1  0  0  0  0
  9 28  1  0  0  0  0
 10 29  1  0  0  0  0
 10 30  1  0  0  0  0
 11 31  1  0  0  0  0
 11 32  1  0  0  0  0
 14 33  1  0  0  0  0
 16 34  1  0  0  0  0
 18 35  1  0  0  0  0
 18 36  1  0  0  0  0
 18 37  1  0  0  0  0
 19 38  1  0  0  0  0
 20 39  1  0  0  0  0
 21 40  1  0  0  0  0
M  END
> <UNIQUE_SMILES>
CC1=CC=CC(=C1)NC2=NC(=NC(=N2)NC3CCCC3)C#N

> <USER_SUPPLIED_SMILES>
N#CC1=NC(NC2CCCC2)=NC(NC3=CC(C)=CC=C3)=N1

$$$$
52
APtclcactv03162116352D 0   0.00000     0.00000    51
 
 37 39  0  0  0  0  0  0  0  0999 V2000
    2.0000    0.3100    0.0000 Br  0  0  0  0  0  0  0  0  0  0  0  0
    2.8660   -0.1900    0.0000 C   0  0  0  0  0  0  0  0  0  0  0  0
    2.8660   -1.1900    0.0000 C   0  0  0  0  0  0  0  0  0  0  0  0
    3.7321   -1.6900    0.0000 C   0  0  0  0  0  0  0  0  0  0  0  0
    3.7321    0.3100    0.0000 C   0  0  0  0  0  0  0  0  0  0  0  0
    4.5981   -0.1900    0.0000 C   0  0  0  0  0  0  0  0  0  0  0  0
    4.5981   -1.1900    0.0000 C   0  0  0  0  0  0  0  0  0  0  0  0
    5.4641   -1.6900    0.0000 N   0  0  0  0  0  0  0  0  0  0  0  0
    6.3301   -1.1900    0.0000 C   0  0  0  0  0  0  0  0  0  0  0  0
    6.3301   -0.1900    0.0000 N   0  0  0  0  0  0  0  0  0  0  0  0
    7.1962    0.3100    0.0000 C   0  0  0  0  0  0  0  0  0  0  0  0
    7.1962    1.3100    0.0000 C   0  0  0  0  0  0  0  0  0  0  0  0
    7.1962    2.3100    0.0000 N   0  0  0  0  0  0  0  0  0  0  0  0
    8.0622   -0.1900    0.0000 N   0  0  0  0  0  0  0  0  0  0  0  0
    8.0622   -1.1900    0.0000 C   0  0  0  0  0  0  0  0  0  0  0  0
    8.9282   -1.6900    0.0000 N   0  0  0  0  0  0  0  0  0  0  0  0
    9.7942   -1.1900    0.0000 C   0  0  0  0  0  0  0  0  0  0  0  0
   10.7078   -1.5967    0.0000 C   0  0  0  0  0  0  0  0  0  0  0  0
   11.3769   -0.8536    0.0000 C   0  0  0  0  0  0  0  0  0  0  0  0
   10.8769    0.0124    0.0000 C   0  0  0  0  0  0  0  0  0  0  0  0
    9.8988   -0.1955    0.0000 C   0  0  0  0  0  0  0  0  0  0  0  0
    7.1962   -1.6900    0.0000 N   0  0  0  0  0  0  0  0  0  0  0  0
    2.3291   -1.5000    0.0000 H   0  0  0  0  0  0  0  0  0  0  0  0
    3.7321   -2.3100    0.0000 H   0  0  0  0  0  0  0  0  0  0  0  0
    3.7321    0.9300    0.0000 H   0  0  0  0  0  0  0  0  0  0  0  0
    5.1350    0.1200    0.0000 H   0  0  0  0  0  0  0  0  0  0  0  0
    5.4641   -2.3100    0.0000 H   0  0  0  0  0  0  0  0  0  0  0  0
    8.9282   -2.3100    0.0000 H   0  0  0  0  0  0  0  0  0  0  0  0
    9.2743   -0.8523    0.0000 H   0  0  0  0  0  0  0  0  0  0  0  0
   10.3978   -2.1337    0.0000 H   0  0  0  0  0  0  0  0  0  0  0  0
   11.2094   -1.9612    0.0000 H   0  0  0  0  0  0  0  0  0  0  0  0
   11.7918   -1.3143    0.0000 H   0  0  0  0  0  0  0  0  0  0  0  0
   11.8785   -0.4892    0.0000 H   0  0  0  0  0  0  0  0  0  0  0  0
   11.4433    0.2746    0.0000 H   0  0  0  0  0  0  0  0  0  0  0  0
   10.6853    0.6021    0.0000 H   0  0  0  0  0  0  0  0  0  0  0  0
    9.8339    0.4211    0.0000 H   0  0  0  0  0  0  0  0  0  0  0  0
    9.2788   -0.1955    0.0000 H   0  0  0  0  0  0  0  0  0  0  0  0
  1  2  1  0  0  0  0
  2  3  1  0  0  0  0
  3  4  2  0  0  0  0
  2  5  2  0  0  0  0
  5  6  1  0  0  0  0
  6  7  2  0  0  0  0
  4  7  1  0  0  0  0
  7  8  1  0  0  0  0
  8  9  1  0  0  0  0
  9 10  2  0  0  0  0
 10 11  1  0  0  0  0
 11 12  1  0  0  0  0
 12 13  3  0  0  0  0
 11 14  2  0  0  0  0
 14 15  1  0  0  0  0
 15 16  1  0  0  0  0
 16 17  1  0  0  0  0
 17 18  1  0  0  0  0
 18 19  1  0  0  0  0
 19 20  1  0  0  0  0
 20 21  1  0  0  0  0
 17 21  1  0  0  0  0
 15 22  2  0  0  0  0
  9 22  1  0  0  0  0
  3 23  1  0  0  0  0
  4 24  1  0  0  0  0
  5 27  1  0  0  0  0
  6 27  1  0  0  0  0
  8 27  1  0  0  0  0
 16 28  1  0  0  0  0
 17 29  1  0  0  0  0
 18 30  1  0  0  0  0
 18 31  1  0  0  0  0
 19 32  1  0  0  0  0
 19 33  1  0  0  0  0
 20 34  1  0  0  0  0
 20 35  1  0  0  0  0
 21 36  1  0  0  0  0
 21 37  1  0  0  0  0
M  END
> <UNIQUE_SMILES>
BrC1=CC=C(NC2=NC(=NC(=N2)NC3CCCC3)C#N)C=C1

> <USER_SUPPLIED_SMILES>
BrC(C=C1)=CC=C1NC2=NC(C#N)=NC(NC3CCCC3)=N2

$$$$
52
APtclcactv03162116352D 0   0.00000     0.00000    52
 
 47 50  0  0  0  0  0  0  0  0999 V2000
    6.3301    1.8100    0.0000 N   0  0  0  0  0  0  0  0  0  0  0  0
    6.3301    0.8100    0.0000 C   0  0  0  0  0  0  0  0  0  0  0  0
    6.3301   -0.1900    0.0000 C   0  0  0  0  0  0  0  0  0  0  0  0
    7.1962   -0.6900    0.0000 N   0  0  0  0  0  0  0  0  0  0  0  0
    7.1962   -1.6900    0.0000 C   0  0  0  0  0  0  0  0  0  0  0  0
    8.0622   -2.1900    0.0000 N   0  0  0  0  0  0  0  0  0  0  0  0
    8.9282   -1.6900    0.0000 C   0  0  0  0  0  0  0  0  0  0  0  0
    9.8417   -2.0967    0.0000 C   0  0  0  0  0  0  0  0  0  0  0  0
   10.5109   -1.3536    0.0000 C   0  0  0  0  0  0  0  0  0  0  0  0
   10.0109   -0.4876    0.0000 C   0  0  0  0  0  0  0  0  0  0  0  0
    9.0327   -0.6955    0.0000 C   0  0  0  0  0  0  0  0  0  0  0  0
    6.3301   -2.1900    0.0000 N   0  0  0  0  0  0  0  0  0  0  0  0
    5.4641   -1.6900    0.0000 C   0  0  0  0  0  0  0  0  0  0  0  0
    4.5981   -2.1900    0.0000 N   0  0  0  0  0  0  0  0  0  0  0  0
    3.7321   -1.6900    0.0000 C   0  0  0  0  0  0  0  0  0  0  0  0
    3.7321   -0.6900    0.0000 C   0  0  0  0  0  0  0  0  0  0  0  0
    2.8660   -0.1900    0.0000 C   0  0  0  0  0  0  0  0  0  0  0  0
    2.8660    0.8100    0.0000 C   0  0  0  0  0  0  0  0  0  0  0  0
    3.7321    1.3100    0.0000 C   0  0  0  0  0  0  0  0  0  0  0  0
    3.7321    2.3100    0.0000 C   0  0  0  0  0  0  0  0  0  0  0  0
    2.8660    2.8100    0.0000 C   0  0  0  0  0  0  0  0  0  0  0  0
    2.0000    2.3100    0.0000 C   0  0  0  0  0  0  0  0  0  0  0  0
    2.0000    1.3100    0.0000 C   0  0  0  0  0  0  0  0  0  0  0  0
    2.0000   -0.6900    0.0000 C   0  0  0  0  0  0  0  0  0  0  0  0
    2.0000   -1.6900    0.0000 C   0  0  0  0  0  0  0  0  0  0  0  0
    2.8660   -2.1900    0.0000 C   0  0  0  0  0  0  0  0  0  0  0  0
    5.4641   -0.6900    0.0000 N   0  0  0  0  0  0  0  0  0  0  0  0
    8.0622   -2.8100    0.0000 H   0  0  0  0  0  0  0  0  0  0  0  0
    8.9607   -2.3092    0.0000 H   0  0  0  0  0  0  0  0  0  0  0  0
    9.5317   -2.6337    0.0000 H   0  0  0  0  0  0  0  0  0  0  0  0
   10.3433   -2.4612    0.0000 H   0  0  0  0  0  0  0  0  0  0  0  0
   10.9277   -1.8143    0.0000 H   0  0  0  0  0  0  0  0  0  0  0  0
   11.0127   -0.9892    0.0000 H   0  0  0  0  0  0  0  0  0  0  0  0
   10.5773   -0.2354    0.0000 H   0  0  0  0  0  0  0  0  0  0  0  0
    9.8193    0.1021    0.0000 H   0  0  0  0  0  0  0  0  0  0  0  0
    8.9679   -0.0789    0.0000 H   0  0  0  0  0  0  0  0  0  0  0  0
    8.4127   -0.6955    0.0000 H   0  0  0  0  0  0  0  0  0  0  0  0
    4.5981   -2.8100    0.0000 H   0  0  0  0  0  0  0  0  0  0  0  0
    4.2790   -0.3800    0.0000 H   0  0  0  0  0  0  0  0  0  0  0  0
    4.2790    1.0000    0.0000 H   0  0  0  0  0  0  0  0  0  0  0  0
    4.2790    2.6200    0.0000 H   0  0  0  0  0  0  0  0  0  0  0  0
    2.8660    3.4300    0.0000 H   0  0  0  0  0  0  0  0  0  0  0  0
    1.4631    2.6200    0.0000 H   0  0  0  0  0  0  0  0  0  0  0  0
    1.4631    1.0000    0.0000 H   0  0  0  0  0  0  0  0  0  0  0  0
    1.4631   -0.3800    0.0000 H   0  0  0  0  0  0  0  0  0  0  0  0
    1.4631   -2.0000    0.0000 H   0  0  0  0  0  0  0  0  0  0  0  0
    2.8660   -2.8100    0.0000 H   0  0  0  0  0  0  0  0  0  0  0  0
  1  2  3  0  0  0  0
  2  3  1  0  0  0  0
  3  4  2  0  0  0  0
  4  5  1  0  0  0  0
  5  6  1  0  0  0  0
  6  7  1  0  0  0  0
  7  8  1  0  0  0  0
  8  9  1  0  0  0  0
  9 10  1  0  0  0  0
 10 11  1  0  0  0  0
  7 11  1  0  0  0  0
  5 12  2  0  0  0  0
 12 13  1  0  0  0  0
 13 14  1  0  0  0  0
 14 15  1  0  0  0  0
 15 16  2  0  0  0  0
 16 17  1  0  0  0  0
 17 18  1  0  0  0  0
 18 19  2  0  0  0  0
 19 20  1  0  0  0  0
 20 21  2  0  0  0  0
 21 22  1  0  0  0  0
 22 23  2  0  0  0  0
 18 23  1  0  0  0  0
 17 24  2  0  0  0  0
 24 27  1  0  0  0  0
 27 27  2  0  0  0  0
 15 27  1  0  0  0  0
 13 27  2  0  0  0  0
  3 27  1  0  0  0  0
  6 28  1  0  0  0  0
  7 29  1  0  0  0  0
  8 30  1  0  0  0  0
  8 31  1  0  0  0  0
  9 32  1  0  0  0  0
  9 33  1  0  0  0  0
 10 34  1  0  0  0  0
 10 35  1  0  0  0  0
 11 36  1  0  0  0  0
 11 37  1  0  0  0  0
 14 38  1  0  0  0  0
 16 39  1  0  0  0  0
 19 40  1  0  0  0  0
 20 41  1  0  0  0  0
 21 42  1  0  0  0  0
 22 43  1  0  0  0  0
 23 44  1  0  0  0  0
 24 45  1  0  0  0  0
 27 46  1  0  0  0  0
 27 47  1  0  0  0  0
M  END
> <UNIQUE_SMILES>
N#CC1=NC(=NC(=N1)NC2=CC(=CC=C2)C3=CC=CC=C3)NC4CCCC4

> <USER_SUPPLIED_SMILES>
N#CC1=NC(NC2CCCC2)=NC(NC3=CC(C4=CC=CC=C4)=CC=C3)=N1

$$$$
53
APtclcactv03162116352D 0   0.00000     0.00000    53
 
 40 42  0  0  0  0  0  0  0  0999 V2000
    6.4641    2.3100    0.0000 N   0  0  0  0  0  0  0  0  0  0  0  0
    6.4641    1.3100    0.0000 C   0  0  0  0  0  0  0  0  0  0  0  0
    6.4641    0.3100    0.0000 C   0  0  0  0  0  0  0  0  0  0  0  0
    7.3301   -0.1900    0.0000 N   0  0  0  0  0  0  0  0  0  0  0  0
    7.3301   -1.1900    0.0000 C   0  0  0  0  0  0  0  0  0  0  0  0
    8.1962   -1.6900    0.0000 N   0  0  0  0  0  0  0  0  0  0  0  0
    9.0622   -1.1900    0.0000 C   0  0  0  0  0  0  0  0  0  0  0  0
    9.9757   -1.5967    0.0000 C   0  0  0  0  0  0  0  0  0  0  0  0
   10.6449   -0.8536    0.0000 C   0  0  0  0  0  0  0  0  0  0  0  0
   10.1449    0.0124    0.0000 C   0  0  0  0  0  0  0  0  0  0  0  0
    9.1667   -0.1955    0.0000 C   0  0  0  0  0  0  0  0  0  0  0  0
    6.4641   -1.6900    0.0000 N   0  0  0  0  0  0  0  0  0  0  0  0
    5.5981   -1.1900    0.0000 C   0  0  0  0  0  0  0  0  0  0  0  0
    4.7321   -1.6900    0.0000 N   0  0  0  0  0  0  0  0  0  0  0  0
    3.8660   -1.1900    0.0000 C   0  0  0  0  0  0  0  0  0  0  0  0
    3.8660   -0.1900    0.0000 C   0  0  0  0  0  0  0  0  0  0  0  0
    3.0000    0.3100    0.0000 C   0  0  0  0  0  0  0  0  0  0  0  0
    3.0000    1.3100    0.0000 C   0  0  0  0  0  0  0  0  0  0  0  0
    3.0000    2.3100    0.0000 F   0  0  0  0  0  0  0  0  0  0  0  0
    2.0000    1.3100    0.0000 F   0  0  0  0  0  0  0  0  0  0  0  0
    4.0000    1.3100    0.0000 F   0  0  0  0  0  0  0  0  0  0  0  0
    2.1340   -0.1900    0.0000 C   0  0  0  0  0  0  0  0  0  0  0  0
    2.1340   -1.1900    0.0000 C   0  0  0  0  0  0  0  0  0  0  0  0
    3.0000   -1.6900    0.0000 C   0  0  0  0  0  0  0  0  0  0  0  0
    5.5981   -0.1900    0.0000 N   0  0  0  0  0  0  0  0  0  0  0  0
    8.1962   -2.3100    0.0000 H   0  0  0  0  0  0  0  0  0  0  0  0
    8.5422   -0.8523    0.0000 H   0  0  0  0  0  0  0  0  0  0  0  0
    9.6657   -2.1337    0.0000 H   0  0  0  0  0  0  0  0  0  0  0  0
   10.4773   -1.9612    0.0000 H   0  0  0  0  0  0  0  0  0  0  0  0
   11.0597   -1.3143    0.0000 H   0  0  0  0  0  0  0  0  0  0  0  0
   11.1464   -0.4892    0.0000 H   0  0  0  0  0  0  0  0  0  0  0  0
   10.7113    0.2746    0.0000 H   0  0  0  0  0  0  0  0  0  0  0  0
    9.9533    0.6021    0.0000 H   0  0  0  0  0  0  0  0  0  0  0  0
    9.1019    0.4211    0.0000 H   0  0  0  0  0  0  0  0  0  0  0  0
    8.5467   -0.1955    0.0000 H   0  0  0  0  0  0  0  0  0  0  0  0
    4.7321   -2.3100    0.0000 H   0  0  0  0  0  0  0  0  0  0  0  0
    4.4030    0.1200    0.0000 H   0  0  0  0  0  0  0  0  0  0  0  0
    1.5970    0.1200    0.0000 H   0  0  0  0  0  0  0  0  0  0  0  0
    1.5970   -1.5000    0.0000 H   0  0  0  0  0  0  0  0  0  0  0  0
    3.0000   -2.3100    0.0000 H   0  0  0  0  0  0  0  0  0  0  0  0
  1  2  3  0  0  0  0
  2  3  1  0  0  0  0
  3  4  2  0  0  0  0
  4  5  1  0  0  0  0
  5  6  1  0  0  0  0
  6  7  1  0  0  0  0
  7  8  1  0  0  0  0
  8  9  1  0  0  0  0
  9 10  1  0  0  0  0
 10 11  1  0  0  0  0
  7 11  1  0  0  0  0
  5 12  2  0  0  0  0
 12 13  1  0  0  0  0
 13 14  1  0  0  0  0
 14 15  1  0  0  0  0
 15 16  2  0  0  0  0
 16 17  1  0  0  0  0
 17 18  1  0  0  0  0
 18 19  1  0  0  0  0
 18 20  1  0  0  0  0
 18 21  1  0  0  0  0
 17 22  2  0  0  0  0
 22 23  1  0  0  0  0
 23 24  2  0  0  0  0
 15 24  1  0  0  0  0
 13 27  2  0  0  0  0
  3 27  1  0  0  0  0
  6 27  1  0  0  0  0
  7 27  1  0  0  0  0
  8 28  1  0  0  0  0
  8 29  1  0  0  0  0
  9 30  1  0  0  0  0
  9 31  1  0  0  0  0
 10 32  1  0  0  0  0
 10 33  1  0  0  0  0
 11 34  1  0  0  0  0
 11 35  1  0  0  0  0
 14 36  1  0  0  0  0
 16 37  1  0  0  0  0
 22 38  1  0  0  0  0
 23 39  1  0  0  0  0
 24 40  1  0  0  0  0
M  END
> <UNIQUE_SMILES>
FC(F)(F)C1=CC=CC(=C1)NC2=NC(=NC(=N2)NC3CCCC3)C#N

> <USER_SUPPLIED_SMILES>
N#CC1=NC(NC2CCCC2)=NC(NC3=CC(C(F)(F)F)=CC=C3)=N1

$$$$
54
APtclcactv03162116352D 0   0.00000     0.00000    54
 
 37 39  0  0  0  0  0  0  0  0999 V2000
    3.7321    1.3100    0.0000 F   0  0  0  0  0  0  0  0  0  0  0  0
    3.7321    0.3100    0.0000 C   0  0  0  0  0  0  0  0  0  0  0  0
    2.8660   -0.1900    0.0000 C   0  0  0  0  0  0  0  0  0  0  0  0
    2.8660   -1.1900    0.0000 C   0  0  0  0  0  0  0  0  0  0  0  0
    2.0000   -1.6900    0.0000 F   0  0  0  0  0  0  0  0  0  0  0  0
    3.7321   -1.6900    0.0000 C   0  0  0  0  0  0  0  0  0  0  0  0
    4.5981   -1.1900    0.0000 C   0  0  0  0  0  0  0  0  0  0  0  0
    5.4641   -1.6900    0.0000 N   0  0  0  0  0  0  0  0  0  0  0  0
    6.3301   -1.1900    0.0000 C   0  0  0  0  0  0  0  0  0  0  0  0
    6.3301   -0.1900    0.0000 N   0  0  0  0  0  0  0  0  0  0  0  0
    7.1962    0.3100    0.0000 C   0  0  0  0  0  0  0  0  0  0  0  0
    7.1962    1.3100    0.0000 C   0  0  0  0  0  0  0  0  0  0  0  0
    7.1962    2.3100    0.0000 N   0  0  0  0  0  0  0  0  0  0  0  0
    8.0622   -0.1900    0.0000 N   0  0  0  0  0  0  0  0  0  0  0  0
    8.0622   -1.1900    0.0000 C   0  0  0  0  0  0  0  0  0  0  0  0
    8.9282   -1.6900    0.0000 N   0  0  0  0  0  0  0  0  0  0  0  0
    9.7942   -1.1900    0.0000 C   0  0  0  0  0  0  0  0  0  0  0  0
   10.7078   -1.5967    0.0000 C   0  0  0  0  0  0  0  0  0  0  0  0
   11.3769   -0.8536    0.0000 C   0  0  0  0  0  0  0  0  0  0  0  0
   10.8769    0.0124    0.0000 C   0  0  0  0  0  0  0  0  0  0  0  0
    9.8988   -0.1955    0.0000 C   0  0  0  0  0  0  0  0  0  0  0  0
    7.1962   -1.6900    0.0000 N   0  0  0  0  0  0  0  0  0  0  0  0
    4.5981   -0.1900    0.0000 C   0  0  0  0  0  0  0  0  0  0  0  0
    2.3291    0.1200    0.0000 H   0  0  0  0  0  0  0  0  0  0  0  0
    3.7321   -2.3100    0.0000 H   0  0  0  0  0  0  0  0  0  0  0  0
    5.4641   -2.3100    0.0000 H   0  0  0  0  0  0  0  0  0  0  0  0
    8.9282   -2.3100    0.0000 H   0  0  0  0  0  0  0  0  0  0  0  0
    9.2743   -0.8523    0.0000 H   0  0  0  0  0  0  0  0  0  0  0  0
   10.3978   -2.1337    0.0000 H   0  0  0  0  0  0  0  0  0  0  0  0
   11.2094   -1.9612    0.0000 H   0  0  0  0  0  0  0  0  0  0  0  0
   11.7918   -1.3143    0.0000 H   0  0  0  0  0  0  0  0  0  0  0  0
   11.8785   -0.4892    0.0000 H   0  0  0  0  0  0  0  0  0  0  0  0
   11.4433    0.2746    0.0000 H   0  0  0  0  0  0  0  0  0  0  0  0
   10.6853    0.6021    0.0000 H   0  0  0  0  0  0  0  0  0  0  0  0
    9.8339    0.4211    0.0000 H   0  0  0  0  0  0  0  0  0  0  0  0
    9.2788   -0.1955    0.0000 H   0  0  0  0  0  0  0  0  0  0  0  0
    5.1350    0.1200    0.0000 H   0  0  0  0  0  0  0  0  0  0  0  0
  1  2  1  0  0  0  0
  2  3  2  0  0  0  0
  3  4  1  0  0  0  0
  4  5  1  0  0  0  0
  4  6  2  0  0  0  0
  6  7  1  0  0  0  0
  7  8  1  0  0  0  0
  8  9  1  0  0  0  0
  9 10  2  0  0  0  0
 10 11  1  0  0  0  0
 11 12  1  0  0  0  0
 12 13  3  0  0  0  0
 11 14  2  0  0  0  0
 14 15  1  0  0  0  0
 15 16  1  0  0  0  0
 16 17  1  0  0  0  0
 17 18  1  0  0  0  0
 18 19  1  0  0  0  0
 19 20  1  0  0  0  0
 20 21  1  0  0  0  0
 17 21  1  0  0  0  0
 15 22  2  0  0  0  0
  9 22  1  0  0  0  0
  7 23  2  0  0  0  0
  2 23  1  0  0  0  0
  3 24  1  0  0  0  0
  6 27  1  0  0  0  0
  8 27  1  0  0  0  0
 16 27  1  0  0  0  0
 17 28  1  0  0  0  0
 18 29  1  0  0  0  0
 18 30  1  0  0  0  0
 19 31  1  0  0  0  0
 19 32  1  0  0  0  0
 20 33  1  0  0  0  0
 20 34  1  0  0  0  0
 21 35  1  0  0  0  0
 21 36  1  0  0  0  0
 23 37  1  0  0  0  0
M  END
> <UNIQUE_SMILES>
FC1=CC(=CC(=C1)NC2=NC(=NC(=N2)NC3CCCC3)C#N)F

> <USER_SUPPLIED_SMILES>
FC1=CC(F)=CC(NC2=NC(C#N)=NC(NC3CCCC3)=N2)=C1

$$$$
55
APtclcactv03162116352D 0   0.00000     0.00000    55
 
 32 33  0  0  0  0  0  0  0  0999 V2000
    5.4641    2.7500    0.0000 N   0  0  0  0  0  0  0  0  0  0  0  0
    5.4641    1.7500    0.0000 C   0  0  0  0  0  0  0  0  0  0  0  0
    5.4641    0.7500    0.0000 C   0  0  0  0  0  0  0  0  0  0  0  0
    6.3301    0.2700    0.0000 N   0  0  0  0  0  0  0  0  0  0  0  0
    6.3301   -0.7500    0.0000 C   0  0  0  0  0  0  0  0  0  0  0  0
    7.1962   -1.2700    0.0000 O   0  0  0  0  0  0  0  0  0  0  0  0
    8.0622   -0.7500    0.0000 C   0  0  0  0  0  0  0  0  0  0  0  0
    8.9282   -1.2700    0.0000 C   0  0  0  0  0  0  0  0  0  0  0  0
    5.4641   -1.2700    0.0000 N   0  0  0  0  0  0  0  0  0  0  0  0
    4.5981   -0.7500    0.0000 C   0  0  0  0  0  0  0  0  0  0  0  0
    3.7321   -1.2700    0.0000 N   0  0  0  0  0  0  0  0  0  0  0  0
    2.8660   -0.7500    0.0000 C   0  0  0  0  0  0  0  0  0  0  0  0
    2.0000   -1.2700    0.0000 C   0  0  0  0  0  0  0  0  0  0  0  0
    2.0000   -2.2700    0.0000 C   0  0  0  0  0  0  0  0  0  0  0  0
    2.8660   -2.7500    0.0000 C   0  0  0  0  0  0  0  0  0  0  0  0
    3.7321   -2.2700    0.0000 C   0  0  0  0  0  0  0  0  0  0  0  0
    4.5981    0.2700    0.0000 N   0  0  0  0  0  0  0  0  0  0  0  0
    8.4607   -0.2751    0.0000 H   0  0  0  0  0  0  0  0  0  0  0  0
    7.6636   -0.2751    0.0000 H   0  0  0  0  0  0  0  0  0  0  0  0
    8.6182   -1.7869    0.0000 H   0  0  0  0  0  0  0  0  0  0  0  0
    9.4651   -1.5600    0.0000 H   0  0  0  0  0  0  0  0  0  0  0  0
    9.2382   -0.7131    0.0000 H   0  0  0  0  0  0  0  0  0  0  0  0
    3.2746   -0.2751    0.0000 H   0  0  0  0  0  0  0  0  0  0  0  0
    2.4675   -0.2751    0.0000 H   0  0  0  0  0  0  0  0  0  0  0  0
    1.7879   -0.6674    0.0000 H   0  0  0  0  0  0  0  0  0  0  0  0
    1.3894   -1.3577    0.0000 H   0  0  0  0  0  0  0  0  0  0  0  0
    1.3894   -2.1423    0.0000 H   0  0  0  0  0  0  0  0  0  0  0  0
    1.7879   -2.8327    0.0000 H   0  0  0  0  0  0  0  0  0  0  0  0
    2.4675   -3.2249    0.0000 H   0  0  0  0  0  0  0  0  0  0  0  0
    3.2746   -3.2249    0.0000 H   0  0  0  0  0  0  0  0  0  0  0  0
    3.9441   -2.8327    0.0000 H   0  0  0  0  0  0  0  0  0  0  0  0
    4.3427   -2.1423    0.0000 H   0  0  0  0  0  0  0  0  0  0  0  0
  1  2  3  0  0  0  0
  2  3  1  0  0  0  0
  3  4  2  0  0  0  0
  4  5  1  0  0  0  0
  5  6  1  0  0  0  0
  6  7  1  0  0  0  0
  7  8  1  0  0  0  0
  5  9  2  0  0  0  0
  9 10  1  0  0  0  0
 10 11  1  0  0  0  0
 11 12  1  0  0  0  0
 12 13  1  0  0  0  0
 13 14  1  0  0  0  0
 14 15  1  0  0  0  0
 15 16  1  0  0  0  0
 11 16  1  0  0  0  0
 10 17  2  0  0  0  0
  3 17  1  0  0  0  0
  7 18  1  0  0  0  0
  7 19  1  0  0  0  0
  8 20  1  0  0  0  0
  8 21  1  0  0  0  0
  8 22  1  0  0  0  0
 12 23  1  0  0  0  0
 12 24  1  0  0  0  0
 13 27  1  0  0  0  0
 13 27  1  0  0  0  0
 14 27  1  0  0  0  0
 14 28  1  0  0  0  0
 15 29  1  0  0  0  0
 15 30  1  0  0  0  0
 16 31  1  0  0  0  0
 16 32  1  0  0  0  0
M  END
> <UNIQUE_SMILES>
CCOC1=NC(=NC(=N1)C#N)N2CCCCC2

> <USER_SUPPLIED_SMILES>
N#CC1=NC(OCC)=NC(N2CCCCC2)=N1

$$$$
56
APtclcactv03162116352D 0   0.00000     0.00000    56
 
 37 39  0  0  0  0  0  0  0  0999 V2000
    3.7321    1.3100    0.0000 Cl  0  0  0  0  0  0  0  0  0  0  0  0
    3.7321    0.3100    0.0000 C   0  0  0  0  0  0  0  0  0  0  0  0
    2.8660   -0.1900    0.0000 C   0  0  0  0  0  0  0  0  0  0  0  0
    2.8660   -1.1900    0.0000 C   0  0  0  0  0  0  0  0  0  0  0  0
    2.0000   -1.6900    0.0000 Cl  0  0  0  0  0  0  0  0  0  0  0  0
    3.7321   -1.6900    0.0000 C   0  0  0  0  0  0  0  0  0  0  0  0
    4.5981   -1.1900    0.0000 C   0  0  0  0  0  0  0  0  0  0  0  0
    5.4641   -1.6900    0.0000 N   0  0  0  0  0  0  0  0  0  0  0  0
    6.3301   -1.1900    0.0000 C   0  0  0  0  0  0  0  0  0  0  0  0
    6.3301   -0.1900    0.0000 N   0  0  0  0  0  0  0  0  0  0  0  0
    7.1962    0.3100    0.0000 C   0  0  0  0  0  0  0  0  0  0  0  0
    7.1962    1.3100    0.0000 C   0  0  0  0  0  0  0  0  0  0  0  0
    7.1962    2.3100    0.0000 N   0  0  0  0  0  0  0  0  0  0  0  0
    8.0622   -0.1900    0.0000 N   0  0  0  0  0  0  0  0  0  0  0  0
    8.0622   -1.1900    0.0000 C   0  0  0  0  0  0  0  0  0  0  0  0
    8.9282   -1.6900    0.0000 N   0  0  0  0  0  0  0  0  0  0  0  0
    9.7942   -1.1900    0.0000 C   0  0  0  0  0  0  0  0  0  0  0  0
   10.7078   -1.5967    0.0000 C   0  0  0  0  0  0  0  0  0  0  0  0
   11.3769   -0.8536    0.0000 C   0  0  0  0  0  0  0  0  0  0  0  0
   10.8769    0.0124    0.0000 C   0  0  0  0  0  0  0  0  0  0  0  0
    9.8988   -0.1955    0.0000 C   0  0  0  0  0  0  0  0  0  0  0  0
    7.1962   -1.6900    0.0000 N   0  0  0  0  0  0  0  0  0  0  0  0
    4.5981   -0.1900    0.0000 C   0  0  0  0  0  0  0  0  0  0  0  0
    2.3291    0.1200    0.0000 H   0  0  0  0  0  0  0  0  0  0  0  0
    3.7321   -2.3100    0.0000 H   0  0  0  0  0  0  0  0  0  0  0  0
    5.4641   -2.3100    0.0000 H   0  0  0  0  0  0  0  0  0  0  0  0
    8.9282   -2.3100    0.0000 H   0  0  0  0  0  0  0  0  0  0  0  0
    9.2743   -0.8523    0.0000 H   0  0  0  0  0  0  0  0  0  0  0  0
   10.3978   -2.1337    0.0000 H   0  0  0  0  0  0  0  0  0  0  0  0
   11.2094   -1.9612    0.0000 H   0  0  0  0  0  0  0  0  0  0  0  0
   11.7918   -1.3143    0.0000 H   0  0  0  0  0  0  0  0  0  0  0  0
   11.8785   -0.4892    0.0000 H   0  0  0  0  0  0  0  0  0  0  0  0
   11.4433    0.2746    0.0000 H   0  0  0  0  0  0  0  0  0  0  0  0
   10.6853    0.6021    0.0000 H   0  0  0  0  0  0  0  0  0  0  0  0
    9.8339    0.4211    0.0000 H   0  0  0  0  0  0  0  0  0  0  0  0
    9.2788   -0.1955    0.0000 H   0  0  0  0  0  0  0  0  0  0  0  0
    5.1350    0.1200    0.0000 H   0  0  0  0  0  0  0  0  0  0  0  0
  1  2  1  0  0  0  0
  2  3  2  0  0  0  0
  3  4  1  0  0  0  0
  4  5  1  0  0  0  0
  4  6  2  0  0  0  0
  6  7  1  0  0  0  0
  7  8  1  0  0  0  0
  8  9  1  0  0  0  0
  9 10  2  0  0  0  0
 10 11  1  0  0  0  0
 11 12  1  0  0  0  0
 12 13  3  0  0  0  0
 11 14  2  0  0  0  0
 14 15  1  0  0  0  0
 15 16  1  0  0  0  0
 16 17  1  0  0  0  0
 17 18  1  0  0  0  0
 18 19  1  0  0  0  0
 19 20  1  0  0  0  0
 20 21  1  0  0  0  0
 17 21  1  0  0  0  0
 15 22  2  0  0  0  0
  9 22  1  0  0  0  0
  7 23  2  0  0  0  0
  2 23  1  0  0  0  0
  3 24  1  0  0  0  0
  6 27  1  0  0  0  0
  8 27  1  0  0  0  0
 16 27  1  0  0  0  0
 17 28  1  0  0  0  0
 18 29  1  0  0  0  0
 18 30  1  0  0  0  0
 19 31  1  0  0  0  0
 19 32  1  0  0  0  0
 20 33  1  0  0  0  0
 20 34  1  0  0  0  0
 21 35  1  0  0  0  0
 21 36  1  0  0  0  0
 23 37  1  0  0  0  0
M  END
> <UNIQUE_SMILES>
ClC1=CC(=CC(=C1)NC2=NC(=NC(=N2)NC3CCCC3)C#N)Cl

> <USER_SUPPLIED_SMILES>
ClC1=CC(Cl)=CC(NC2=NC(C#N)=NC(NC3CCCC3)=N2)=C1

$$$$
57
APtclcactv03162116352D 0   0.00000     0.00000    57
 
 30 31  0  0  0  0  0  0  0  0999 V2000
    3.7321    1.5000    0.0000 F   0  0  0  0  0  0  0  0  0  0  0  0
    3.7321    0.5000    0.0000 C   0  0  0  0  0  0  0  0  0  0  0  0
    2.8660   -0.0000    0.0000 C   0  0  0  0  0  0  0  0  0  0  0  0
    2.8660   -1.0000    0.0000 C   0  0  0  0  0  0  0  0  0  0  0  0
    2.0000   -1.5000    0.0000 F   0  0  0  0  0  0  0  0  0  0  0  0
    3.7321   -1.5000    0.0000 C   0  0  0  0  0  0  0  0  0  0  0  0
    4.5981   -1.0000    0.0000 C   0  0  0  0  0  0  0  0  0  0  0  0
    5.4641   -1.5000    0.0000 N   0  0  0  0  0  0  0  0  0  0  0  0
    6.3301   -1.0000    0.0000 C   0  0  0  0  0  0  0  0  0  0  0  0
    6.3301   -0.0000    0.0000 N   0  0  0  0  0  0  0  0  0  0  0  0
    7.1962    0.5000    0.0000 C   0  0  0  0  0  0  0  0  0  0  0  0
    7.1962    1.5000    0.0000 C   0  0  0  0  0  0  0  0  0  0  0  0
    7.1962    2.5000    0.0000 N   0  0  0  0  0  0  0  0  0  0  0  0
    8.0622    0.0000    0.0000 N   0  0  0  0  0  0  0  0  0  0  0  0
    8.0622   -1.0000    0.0000 C   0  0  0  0  0  0  0  0  0  0  0  0
    8.9282   -1.5000    0.0000 N   0  0  0  0  0  0  0  0  0  0  0  0
    9.7942   -1.0000    0.0000 C   0  0  0  0  0  0  0  0  0  0  0  0
   10.6603   -1.5000    0.0000 C   0  0  0  0  0  0  0  0  0  0  0  0
   11.5273   -1.0000    0.0000 F   0  0  0  0  0  0  0  0  0  0  0  0
   10.6603   -2.5000    0.0000 F   0  0  0  0  0  0  0  0  0  0  0  0
    7.1962   -1.5000    0.0000 N   0  0  0  0  0  0  0  0  0  0  0  0
    4.5981   -0.0000    0.0000 C   0  0  0  0  0  0  0  0  0  0  0  0
    2.3291    0.3100    0.0000 H   0  0  0  0  0  0  0  0  0  0  0  0
    3.7321   -2.1200    0.0000 H   0  0  0  0  0  0  0  0  0  0  0  0
    5.4641   -2.1200    0.0000 H   0  0  0  0  0  0  0  0  0  0  0  0
    8.9282   -2.1200    0.0000 H   0  0  0  0  0  0  0  0  0  0  0  0
   10.1928   -0.5271    0.0000 H   0  0  0  0  0  0  0  0  0  0  0  0
    9.3957   -0.5271    0.0000 H   0  0  0  0  0  0  0  0  0  0  0  0
   11.1972   -1.8100    0.0000 H   0  0  0  0  0  0  0  0  0  0  0  0
    5.1350    0.3100    0.0000 H   0  0  0  0  0  0  0  0  0  0  0  0
  1  2  1  0  0  0  0
  2  3  2  0  0  0  0
  3  4  1  0  0  0  0
  4  5  1  0  0  0  0
  4  6  2  0  0  0  0
  6  7  1  0  0  0  0
  7  8  1  0  0  0  0
  8  9  1  0  0  0  0
  9 10  2  0  0  0  0
 10 11  1  0  0  0  0
 11 12  1  0  0  0  0
 12 13  3  0  0  0  0
 11 14  2  0  0  0  0
 14 15  1  0  0  0  0
 15 16  1  0  0  0  0
 16 17  1  0  0  0  0
 17 18  1  0  0  0  0
 18 19  1  0  0  0  0
 18 20  1  0  0  0  0
 15 21  2  0  0  0  0
  9 21  1  0  0  0  0
  7 22  2  0  0  0  0
  2 22  1  0  0  0  0
  3 23  1  0  0  0  0
  6 24  1  0  0  0  0
  8 27  1  0  0  0  0
 16 27  1  0  0  0  0
 17 27  1  0  0  0  0
 17 28  1  0  0  0  0
 18 29  1  0  0  0  0
 22 30  1  0  0  0  0
M  END
> <UNIQUE_SMILES>
FC(F)CNC1=NC(=NC(=N1)C#N)NC2=CC(=CC(=C2)F)F

> <USER_SUPPLIED_SMILES>
FC1=CC(F)=CC(NC2=NC(C#N)=NC(NCC(F)F)=N2)=C1

$$$$
58
APtclcactv03162116352D 0   0.00000     0.00000    58
 
 32 34  0  0  0  0  0  0  0  0999 V2000
    2.8660   -3.0193    0.0000 N   0  0  0  0  0  0  0  0  0  0  0  0
    3.7321   -2.5193    0.0000 C   0  0  0  0  0  0  0  0  0  0  0  0
    4.5981   -2.0193    0.0000 C   0  0  0  0  0  0  0  0  0  0  0  0
    4.5981   -1.0193    0.0000 N   0  0  0  0  0  0  0  0  0  0  0  0
    5.4641   -0.5193    0.0000 C   0  0  0  0  0  0  0  0  0  0  0  0
    5.4641    0.4807    0.0000 N   0  0  0  0  0  0  0  0  0  0  0  0
    4.5981    0.9807    0.0000 C   0  0  0  0  0  0  0  0  0  0  0  0
    4.5981    1.9807    0.0000 C   0  0  0  0  0  0  0  0  0  0  0  0
    3.7321    2.4807    0.0000 C   0  0  0  0  0  0  0  0  0  0  0  0
    3.7321    3.4807    0.0000 F   0  0  0  0  0  0  0  0  0  0  0  0
    2.8660    1.9807    0.0000 C   0  0  0  0  0  0  0  0  0  0  0  0
    2.8660    0.9807    0.0000 C   0  0  0  0  0  0  0  0  0  0  0  0
    2.0000    0.4807    0.0000 F   0  0  0  0  0  0  0  0  0  0  0  0
    3.7321    0.4807    0.0000 C   0  0  0  0  0  0  0  0  0  0  0  0
    6.3301   -1.0193    0.0000 C   0  0  0  0  0  0  0  0  0  0  0  0
    7.2763   -0.7145    0.0000 N   0  0  0  0  0  0  0  0  0  0  0  0
    7.8600   -1.5193    0.0000 C   0  0  0  0  0  0  0  0  0  0  0  0
    7.2763   -2.3240    0.0000 N   0  0  0  0  0  0  0  0  0  0  0  0
    7.5870   -3.2745    0.0000 C   0  0  0  0  0  0  0  0  0  0  0  0
    8.5655   -3.4807    0.0000 C   0  0  0  0  0  0  0  0  0  0  0  0
    6.3301   -2.0193    0.0000 C   0  0  0  0  0  0  0  0  0  0  0  0
    5.4641   -2.5193    0.0000 N   0  0  0  0  0  0  0  0  0  0  0  0
    6.0010    0.7907    0.0000 H   0  0  0  0  0  0  0  0  0  0  0  0
    5.1350    2.2907    0.0000 H   0  0  0  0  0  0  0  0  0  0  0  0
    2.3291    2.2907    0.0000 H   0  0  0  0  0  0  0  0  0  0  0  0
    3.7321   -0.1393    0.0000 H   0  0  0  0  0  0  0  0  0  0  0  0
    8.4800   -1.5193    0.0000 H   0  0  0  0  0  0  0  0  0  0  0  0
    6.9732   -3.3619    0.0000 H   0  0  0  0  0  0  0  0  0  0  0  0
    7.5664   -3.8942    0.0000 H   0  0  0  0  0  0  0  0  0  0  0  0
    8.4377   -4.0874    0.0000 H   0  0  0  0  0  0  0  0  0  0  0  0
    9.1722   -3.6086    0.0000 H   0  0  0  0  0  0  0  0  0  0  0  0
    8.6934   -2.8741    0.0000 H   0  0  0  0  0  0  0  0  0  0  0  0
  1  2  3  0  0  0  0
  2  3  1  0  0  0  0
  3  4  2  0  0  0  0
  4  5  1  0  0  0  0
  5  6  1  0  0  0  0
  6  7  1  0  0  0  0
  7  8  2  0  0  0  0
  8  9  1  0  0  0  0
  9 10  1  0  0  0  0
  9 11  2  0  0  0  0
 11 12  1  0  0  0  0
 12 13  1  0  0  0  0
 12 14  2  0  0  0  0
  7 14  1  0  0  0  0
  5 15  2  0  0  0  0
 15 16  1  0  0  0  0
 16 17  2  0  0  0  0
 17 18  1  0  0  0  0
 18 19  1  0  0  0  0
 19 20  1  0  0  0  0
 18 21  1  0  0  0  0
 15 21  1  0  0  0  0
 21 22  2  0  0  0  0
  3 22  1  0  0  0  0
  6 23  1  0  0  0  0
  8 24  1  0  0  0  0
 11 27  1  0  0  0  0
 14 27  1  0  0  0  0
 17 27  1  0  0  0  0
 19 28  1  0  0  0  0
 19 29  1  0  0  0  0
 20 30  1  0  0  0  0
 20 31  1  0  0  0  0
 20 32  1  0  0  0  0
M  END
> <UNIQUE_SMILES>
CC[N]1C=NC2=C(NC3=CC(=CC(=C3)F)F)N=C(N=C12)C#N

> <USER_SUPPLIED_SMILES>
N#CC1=NC(NC2=CC(F)=CC(F)=C2)=C3N=CN(CC)C3=N1

$$$$
59
APtclcactv03162116352D 0   0.00000     0.00000    59
 
 32 34  0  0  0  0  0  0  0  0999 V2000
    2.0000   -3.0193    0.0000 N   0  0  0  0  0  0  0  0  0  0  0  0
    2.8660   -2.5193    0.0000 C   0  0  0  0  0  0  0  0  0  0  0  0
    3.7321   -2.0193    0.0000 C   0  0  0  0  0  0  0  0  0  0  0  0
    3.7321   -1.0193    0.0000 N   0  0  0  0  0  0  0  0  0  0  0  0
    4.5981   -0.5193    0.0000 C   0  0  0  0  0  0  0  0  0  0  0  0
    4.5981    0.4807    0.0000 N   0  0  0  0  0  0  0  0  0  0  0  0
    3.7321    0.9807    0.0000 C   0  0  0  0  0  0  0  0  0  0  0  0
    2.8660    0.4807    0.0000 C   0  0  0  0  0  0  0  0  0  0  0  0
    2.0000    0.9807    0.0000 C   0  0  0  0  0  0  0  0  0  0  0  0
    2.0000    1.9807    0.0000 C   0  0  0  0  0  0  0  0  0  0  0  0
    2.8660    2.4807    0.0000 C   0  0  0  0  0  0  0  0  0  0  0  0
    2.8660    3.4807    0.0000 Cl  0  0  0  0  0  0  0  0  0  0  0  0
    3.7321    1.9807    0.0000 C   0  0  0  0  0  0  0  0  0  0  0  0
    5.4641   -1.0193    0.0000 C   0  0  0  0  0  0  0  0  0  0  0  0
    6.4103   -0.7145    0.0000 N   0  0  0  0  0  0  0  0  0  0  0  0
    6.9939   -1.5193    0.0000 C   0  0  0  0  0  0  0  0  0  0  0  0
    6.4103   -2.3240    0.0000 N   0  0  0  0  0  0  0  0  0  0  0  0
    6.7210   -3.2745    0.0000 C   0  0  0  0  0  0  0  0  0  0  0  0
    7.6995   -3.4807    0.0000 C   0  0  0  0  0  0  0  0  0  0  0  0
    5.4641   -2.0193    0.0000 C   0  0  0  0  0  0  0  0  0  0  0  0
    4.5981   -2.5193    0.0000 N   0  0  0  0  0  0  0  0  0  0  0  0
    5.1350    0.7907    0.0000 H   0  0  0  0  0  0  0  0  0  0  0  0
    2.8660   -0.1393    0.0000 H   0  0  0  0  0  0  0  0  0  0  0  0
    1.4631    0.6707    0.0000 H   0  0  0  0  0  0  0  0  0  0  0  0
    1.4631    2.2907    0.0000 H   0  0  0  0  0  0  0  0  0  0  0  0
    4.2790    2.2907    0.0000 H   0  0  0  0  0  0  0  0  0  0  0  0
    7.6139   -1.5193    0.0000 H   0  0  0  0  0  0  0  0  0  0  0  0
    6.1072   -3.3619    0.0000 H   0  0  0  0  0  0  0  0  0  0  0  0
    6.7004   -3.8942    0.0000 H   0  0  0  0  0  0  0  0  0  0  0  0
    7.5716   -4.0874    0.0000 H   0  0  0  0  0  0  0  0  0  0  0  0
    8.3062   -3.6086    0.0000 H   0  0  0  0  0  0  0  0  0  0  0  0
    7.8273   -2.8741    0.0000 H   0  0  0  0  0  0  0  0  0  0  0  0
  1  2  3  0  0  0  0
  2  3  1  0  0  0  0
  3  4  2  0  0  0  0
  4  5  1  0  0  0  0
  5  6  1  0  0  0  0
  6  7  1  0  0  0  0
  7  8  2  0  0  0  0
  8  9  1  0  0  0  0
  9 10  2  0  0  0  0
 10 11  1  0  0  0  0
 11 12  1  0  0  0  0
 11 13  2  0  0  0  0
  7 13  1  0  0  0  0
  5 14  2  0  0  0  0
 14 15  1  0  0  0  0
 15 16  2  0  0  0  0
 16 17  1  0  0  0  0
 17 18  1  0  0  0  0
 18 19  1  0  0  0  0
 17 20  1  0  0  0  0
 14 20  1  0  0  0  0
 20 21  2  0  0  0  0
  3 21  1  0  0  0  0
  6 22  1  0  0  0  0
  8 23  1  0  0  0  0
  9 24  1  0  0  0  0
 10 27  1  0  0  0  0
 13 27  1  0  0  0  0
 16 27  1  0  0  0  0
 18 28  1  0  0  0  0
 18 29  1  0  0  0  0
 19 30  1  0  0  0  0
 19 31  1  0  0  0  0
 19 32  1  0  0  0  0
M  END
> <UNIQUE_SMILES>
CC[N]1C=NC2=C(NC3=CC=CC(=C3)Cl)N=C(N=C12)C#N

> <USER_SUPPLIED_SMILES>
N#CC1=NC(NC2=CC=CC(Cl)=C2)=C3N=CN(CC)C3=N1

$$$$
60
APtclcactv03162116352D 0   0.00000     0.00000    60
 
 39 42  0  0  0  0  0  0  0  0999 V2000
    2.8660    1.8134    0.0000 N   0  0  0  0  0  0  0  0  0  0  0  0
    3.7321    1.3134    0.0000 C   0  0  0  0  0  0  0  0  0  0  0  0
    4.5981    0.8134    0.0000 C   0  0  0  0  0  0  0  0  0  0  0  0
    4.5981   -0.1866    0.0000 N   0  0  0  0  0  0  0  0  0  0  0  0
    5.4641   -0.6866    0.0000 C   0  0  0  0  0  0  0  0  0  0  0  0
    5.4641   -1.6866    0.0000 N   0  0  0  0  0  0  0  0  0  0  0  0
    4.5981   -2.1866    0.0000 C   0  0  0  0  0  0  0  0  0  0  0  0
    4.5981   -3.1866    0.0000 C   0  0  0  0  0  0  0  0  0  0  0  0
    3.7321   -3.6866    0.0000 C   0  0  0  0  0  0  0  0  0  0  0  0
    2.8660   -3.1866    0.0000 C   0  0  0  0  0  0  0  0  0  0  0  0
    2.8660   -2.1866    0.0000 C   0  0  0  0  0  0  0  0  0  0  0  0
    2.0000   -1.6866    0.0000 Cl  0  0  0  0  0  0  0  0  0  0  0  0
    3.7321   -1.6866    0.0000 C   0  0  0  0  0  0  0  0  0  0  0  0
    6.3301   -0.1866    0.0000 C   0  0  0  0  0  0  0  0  0  0  0  0
    7.2763   -0.4914    0.0000 N   0  0  0  0  0  0  0  0  0  0  0  0
    7.8600    0.3134    0.0000 C   0  0  0  0  0  0  0  0  0  0  0  0
    7.2763    1.1181    0.0000 N   0  0  0  0  0  0  0  0  0  0  0  0
    7.5870    2.0686    0.0000 C   0  0  0  0  0  0  0  0  0  0  0  0
    8.5386    2.3760    0.0000 C   0  0  0  0  0  0  0  0  0  0  0  0
    8.5403    3.3760    0.0000 C   0  0  0  0  0  0  0  0  0  0  0  0
    7.5898    3.6866    0.0000 C   0  0  0  0  0  0  0  0  0  0  0  0
    7.0006    2.8786    0.0000 C   0  0  0  0  0  0  0  0  0  0  0  0
    6.3301    0.8134    0.0000 C   0  0  0  0  0  0  0  0  0  0  0  0
    5.4641    1.3134    0.0000 N   0  0  0  0  0  0  0  0  0  0  0  0
    6.0010   -1.9966    0.0000 H   0  0  0  0  0  0  0  0  0  0  0  0
    5.1350   -3.4966    0.0000 H   0  0  0  0  0  0  0  0  0  0  0  0
    3.7321   -4.3066    0.0000 H   0  0  0  0  0  0  0  0  0  0  0  0
    2.3291   -3.4966    0.0000 H   0  0  0  0  0  0  0  0  0  0  0  0
    3.7321   -1.0666    0.0000 H   0  0  0  0  0  0  0  0  0  0  0  0
    8.4800    0.3134    0.0000 H   0  0  0  0  0  0  0  0  0  0  0  0
    6.9745    1.9727    0.0000 H   0  0  0  0  0  0  0  0  0  0  0  0
    8.6665    1.7693    0.0000 H   0  0  0  0  0  0  0  0  0  0  0  0
    9.1553    2.4397    0.0000 H   0  0  0  0  0  0  0  0  0  0  0  0
    9.1568    3.3101    0.0000 H   0  0  0  0  0  0  0  0  0  0  0  0
    8.6703    3.9822    0.0000 H   0  0  0  0  0  0  0  0  0  0  0  0
    7.8430    4.2727    0.0000 H   0  0  0  0  0  0  0  0  0  0  0  0
    7.0534    3.9976    0.0000 H   0  0  0  0  0  0  0  0  0  0  0  0
    6.5406    3.2943    0.0000 H   0  0  0  0  0  0  0  0  0  0  0  0
    6.5392    2.4646    0.0000 H   0  0  0  0  0  0  0  0  0  0  0  0
  1  2  3  0  0  0  0
  2  3  1  0  0  0  0
  3  4  2  0  0  0  0
  4  5  1  0  0  0  0
  5  6  1  0  0  0  0
  6  7  1  0  0  0  0
  7  8  2  0  0  0  0
  8  9  1  0  0  0  0
  9 10  2  0  0  0  0
 10 11  1  0  0  0  0
 11 12  1  0  0  0  0
 11 13  2  0  0  0  0
  7 13  1  0  0  0  0
  5 14  2  0  0  0  0
 14 15  1  0  0  0  0
 15 16  2  0  0  0  0
 16 17  1  0  0  0  0
 17 18  1  0  0  0  0
 18 19  1  0  0  0  0
 19 20  1  0  0  0  0
 20 21  1  0  0  0  0
 21 22  1  0  0  0  0
 18 22  1  0  0  0  0
 17 23  1  0  0  0  0
 14 23  1  0  0  0  0
 23 24  2  0  0  0  0
  3 24  1  0  0  0  0
  6 27  1  0  0  0  0
  8 27  1  0  0  0  0
  9 27  1  0  0  0  0
 10 28  1  0  0  0  0
 13 29  1  0  0  0  0
 16 30  1  0  0  0  0
 18 31  1  0  0  0  0
 19 32  1  0  0  0  0
 19 33  1  0  0  0  0
 20 34  1  0  0  0  0
 20 35  1  0  0  0  0
 21 36  1  0  0  0  0
 21 37  1  0  0  0  0
 22 38  1  0  0  0  0
 22 39  1  0  0  0  0
M  END
> <UNIQUE_SMILES>
ClC1=CC(=CC=C1)NC2=C3N=C[N](C4CCCC4)C3=NC(=N2)C#N

> <USER_SUPPLIED_SMILES>
N#CC1=NC(NC2=CC=CC(Cl)=C2)=C3N=CN(C4CCCC4)C3=N1

$$$$
61
APtclcactv03162116352D 0   0.00000     0.00000    61
 
 34 36  0  0  0  0  0  0  0  0999 V2000
    2.8660   -2.1900    0.0000 N   0  0  0  0  0  0  0  0  0  0  0  0
    3.7321   -1.6900    0.0000 C   0  0  0  0  0  0  0  0  0  0  0  0
    3.7321   -0.6900    0.0000 N   0  0  0  0  0  0  0  0  0  0  0  0
    4.5981   -0.1900    0.0000 C   0  0  0  0  0  0  0  0  0  0  0  0
    4.5981    0.8100    0.0000 N   0  0  0  0  0  0  0  0  0  0  0  0
    5.4641    1.3100    0.0000 C   0  0  0  0  0  0  0  0  0  0  0  0
    6.3301    0.8100    0.0000 C   0  0  0  0  0  0  0  0  0  0  0  0
    7.1962    1.3100    0.0000 C   0  0  0  0  0  0  0  0  0  0  0  0
    7.1962    2.3100    0.0000 C   0  0  0  0  0  0  0  0  0  0  0  0
    6.3301    2.8100    0.0000 C   0  0  0  0  0  0  0  0  0  0  0  0
    5.4641    2.3100    0.0000 C   0  0  0  0  0  0  0  0  0  0  0  0
    3.7321    1.3100    0.0000 C   0  0  0  0  0  0  0  0  0  0  0  0
    3.7321    2.3100    0.0000 C   0  0  0  0  0  0  0  0  0  0  0  0
    2.8660    2.8100    0.0000 C   0  0  0  0  0  0  0  0  0  0  0  0
    2.0000    2.3100    0.0000 C   0  0  0  0  0  0  0  0  0  0  0  0
    2.0000    1.3100    0.0000 C   0  0  0  0  0  0  0  0  0  0  0  0
    2.8660    0.8100    0.0000 C   0  0  0  0  0  0  0  0  0  0  0  0
    5.4641   -0.6900    0.0000 N   0  0  0  0  0  0  0  0  0  0  0  0
    5.4641   -1.6900    0.0000 C   0  0  0  0  0  0  0  0  0  0  0  0
    6.3301   -2.1900    0.0000 C   0  0  0  0  0  0  0  0  0  0  0  0
    7.1962   -2.6900    0.0000 N   0  0  0  0  0  0  0  0  0  0  0  0
    4.5981   -2.1900    0.0000 N   0  0  0  0  0  0  0  0  0  0  0  0
    2.8660   -2.8100    0.0000 H   0  0  0  0  0  0  0  0  0  0  0  0
    2.3291   -1.8800    0.0000 H   0  0  0  0  0  0  0  0  0  0  0  0
    6.3301    0.1900    0.0000 H   0  0  0  0  0  0  0  0  0  0  0  0
    7.7331    1.0000    0.0000 H   0  0  0  0  0  0  0  0  0  0  0  0
    7.7331    2.6200    0.0000 H   0  0  0  0  0  0  0  0  0  0  0  0
    6.3301    3.4300    0.0000 H   0  0  0  0  0  0  0  0  0  0  0  0
    4.9272    2.6200    0.0000 H   0  0  0  0  0  0  0  0  0  0  0  0
    4.2790    2.6200    0.0000 H   0  0  0  0  0  0  0  0  0  0  0  0
    2.8660    3.4300    0.0000 H   0  0  0  0  0  0  0  0  0  0  0  0
    1.4631    2.6200    0.0000 H   0  0  0  0  0  0  0  0  0  0  0  0
    1.4631    1.0000    0.0000 H   0  0  0  0  0  0  0  0  0  0  0  0
    2.8660    0.1900    0.0000 H   0  0  0  0  0  0  0  0  0  0  0  0
  1  2  1  0  0  0  0
  2  3  2  0  0  0  0
  3  4  1  0  0  0  0
  4  5  1  0  0  0  0
  5  6  1  0  0  0  0
  6  7  2  0  0  0  0
  7  8  1  0  0  0  0
  8  9  2  0  0  0  0
  9 10  1  0  0  0  0
 10 11  2  0  0  0  0
  6 11  1  0  0  0  0
  5 12  1  0  0  0  0
 12 13  2  0  0  0  0
 13 14  1  0  0  0  0
 14 15  2  0  0  0  0
 15 16  1  0  0  0  0
 16 17  2  0  0  0  0
 12 17  1  0  0  0  0
  4 18  2  0  0  0  0
 18 19  1  0  0  0  0
 19 20  1  0  0  0  0
 20 21  3  0  0  0  0
 19 22  2  0  0  0  0
  2 22  1  0  0  0  0
  1 23  1  0  0  0  0
  1 24  1  0  0  0  0
  7 27  1  0  0  0  0
  8 27  1  0  0  0  0
  9 27  1  0  0  0  0
 10 28  1  0  0  0  0
 11 29  1  0  0  0  0
 13 30  1  0  0  0  0
 14 31  1  0  0  0  0
 15 32  1  0  0  0  0
 16 33  1  0  0  0  0
 17 34  1  0  0  0  0
M  END
> <UNIQUE_SMILES>
NC1=NC(=NC(=N1)C#N)N(C2=CC=CC=C2)C3=CC=CC=C3

> <USER_SUPPLIED_SMILES>
NC1=NC(N(C2=CC=CC=C2)C3=CC=CC=C3)=NC(C#N)=N1

$$$$
d_5a
APtclcactv03162116352D 0   0.00000     0.00000    62
 
 41 43  0  0  0  0  0  0  0  0999 V2000
    8.1282    4.0068    0.0000 Cl  0  0  0  0  0  0  0  0  0  0  0  0
    7.2741    3.5035    0.0000 C   0  0  0  0  0  0  0  0  0  0  0  0
    7.2741    2.4619    0.0000 C   0  0  0  0  0  0  0  0  0  0  0  0
    6.3580    1.9480    0.0000 C   0  0  0  0  0  0  0  0  0  0  0  0
    5.4641    2.4827    0.0000 C   0  0  0  0  0  0  0  0  0  0  0  0
    5.4641    3.4827    0.0000 C   0  0  0  0  0  0  0  0  0  0  0  0
    4.5981    3.9827    0.0000 N   0  0  0  0  0  0  0  0  0  0  0  0
    3.7321    3.4827    0.0000 C   0  0  0  0  0  0  0  0  0  0  0  0
    3.7321    2.4827    0.0000 C   0  0  0  0  0  0  0  0  0  0  0  0
    4.5981    1.9827    0.0000 C   0  0  0  0  0  0  0  0  0  0  0  0
    4.5981    0.9827    0.0000 N   0  0  0  0  0  0  0  0  0  0  0  0
    3.7321    0.4827    0.0000 C   0  0  0  0  0  0  0  0  0  0  0  0
    3.7321   -0.5173    0.0000 C   0  0  0  0  0  0  0  0  0  0  0  0
    2.8660   -1.0173    0.0000 C   0  0  0  0  0  0  0  0  0  0  0  0
    2.8660   -2.0173    0.0000 N   0  0  0  0  0  0  0  0  0  0  0  0
    2.0000   -2.5173    0.0000 C   0  0  0  0  0  0  0  0  0  0  0  0
    2.0000   -3.5173    0.0000 C   0  0  0  0  0  0  0  0  0  0  0  0
    2.8660   -4.0173    0.0000 O   0  0  0  0  0  0  0  0  0  0  0  0
    3.7321   -3.5173    0.0000 C   0  0  0  0  0  0  0  0  0  0  0  0
    3.7321   -2.5173    0.0000 C   0  0  0  0  0  0  0  0  0  0  0  0
    6.3580    4.0173    0.0000 C   0  0  0  0  0  0  0  0  0  0  0  0
    7.7998    2.1498    0.0000 H   0  0  0  0  0  0  0  0  0  0  0  0
    6.3509    1.3280    0.0000 H   0  0  0  0  0  0  0  0  0  0  0  0
    3.1951    3.7927    0.0000 H   0  0  0  0  0  0  0  0  0  0  0  0
    3.1951    2.1727    0.0000 H   0  0  0  0  0  0  0  0  0  0  0  0
    5.1350    0.6727    0.0000 H   0  0  0  0  0  0  0  0  0  0  0  0
    3.5200    1.0653    0.0000 H   0  0  0  0  0  0  0  0  0  0  0  0
    3.1215    0.3750    0.0000 H   0  0  0  0  0  0  0  0  0  0  0  0
    3.9441   -1.0999    0.0000 H   0  0  0  0  0  0  0  0  0  0  0  0
    4.3427   -0.4097    0.0000 H   0  0  0  0  0  0  0  0  0  0  0  0
    2.6540   -0.4347    0.0000 H   0  0  0  0  0  0  0  0  0  0  0  0
    2.2754   -1.1270    0.0000 H   0  0  0  0  0  0  0  0  0  0  0  0
    1.7879   -1.9347    0.0000 H   0  0  0  0  0  0  0  0  0  0  0  0
    1.3894   -2.6270    0.0000 H   0  0  0  0  0  0  0  0  0  0  0  0
    1.3894   -3.4097    0.0000 H   0  0  0  0  0  0  0  0  0  0  0  0
    1.7879   -4.0999    0.0000 H   0  0  0  0  0  0  0  0  0  0  0  0
    3.9441   -4.0999    0.0000 H   0  0  0  0  0  0  0  0  0  0  0  0
    4.3427   -3.4097    0.0000 H   0  0  0  0  0  0  0  0  0  0  0  0
    4.3427   -2.6270    0.0000 H   0  0  0  0  0  0  0  0  0  0  0  0
    3.9441   -1.9347    0.0000 H   0  0  0  0  0  0  0  0  0  0  0  0
    6.3509    4.6373    0.0000 H   0  0  0  0  0  0  0  0  0  0  0  0
  1  2  1  0  0  0  0
  2  3  2  0  0  0  0
  3  4  1  0  0  0  0
  4  5  2  0  0  0  0
  5  6  1  0  0  0  0
  6  7  1  0  0  0  0
  7  8  2  0  0  0  0
  8  9  1  0  0  0  0
  9 10  2  0  0  0  0
  5 10  1  0  0  0  0
 10 11  1  0  0  0  0
 11 12  1  0  0  0  0
 12 13  1  0  0  0  0
 13 14  1  0  0  0  0
 14 15  1  0  0  0  0
 15 16  1  0  0  0  0
 16 17  1  0  0  0  0
 17 18  1  0  0  0  0
 18 19  1  0  0  0  0
 19 20  1  0  0  0  0
 15 20  1  0  0  0  0
  6 21  2  0  0  0  0
  2 21  1  0  0  0  0
  3 22  1  0  0  0  0
  4 23  1  0  0  0  0
  8 24  1  0  0  0  0
  9 27  1  0  0  0  0
 11 27  1  0  0  0  0
 12 27  1  0  0  0  0
 12 28  1  0  0  0  0
 13 29  1  0  0  0  0
 13 30  1  0  0  0  0
 14 31  1  0  0  0  0
 14 32  1  0  0  0  0
 16 33  1  0  0  0  0
 16 34  1  0  0  0  0
 17 35  1  0  0  0  0
 17 36  1  0  0  0  0
 19 37  1  0  0  0  0
 19 38  1  0  0  0  0
 20 39  1  0  0  0  0
 20 40  1  0  0  0  0
 21 41  1  0  0  0  0
M  END
> <UNIQUE_SMILES>
ClC1=CC=C2C(=CC=NC2=C1)NCCCN3CCOCC3

> <USER_SUPPLIED_SMILES>
ClC1=CC=C2C(N=CC=C2NCCCN3CCOCC3)=C1

$$$$
d_5b
APtclcactv03162116352D 0   0.00000     0.00000    63
 
 38 40  0  0  0  0  0  0  0  0999 V2000
    8.9942    3.2768    0.0000 Cl  0  0  0  0  0  0  0  0  0  0  0  0
    8.1301    2.7535    0.0000 C   0  0  0  0  0  0  0  0  0  0  0  0
    8.1301    1.7119    0.0000 C   0  0  0  0  0  0  0  0  0  0  0  0
    7.2241    1.1980    0.0000 C   0  0  0  0  0  0  0  0  0  0  0  0
    6.3301    1.7327    0.0000 C   0  0  0  0  0  0  0  0  0  0  0  0
    6.3301    2.7327    0.0000 C   0  0  0  0  0  0  0  0  0  0  0  0
    5.4641    3.2327    0.0000 N   0  0  0  0  0  0  0  0  0  0  0  0
    4.5981    2.7327    0.0000 C   0  0  0  0  0  0  0  0  0  0  0  0
    4.5981    1.7327    0.0000 C   0  0  0  0  0  0  0  0  0  0  0  0
    5.4641    1.2327    0.0000 C   0  0  0  0  0  0  0  0  0  0  0  0
    5.4641    0.2327    0.0000 N   0  0  0  0  0  0  0  0  0  0  0  0
    4.5981   -0.2773    0.0000 C   0  0  0  0  0  0  0  0  0  0  0  0
    4.5981   -1.2773    0.0000 C   0  0  0  0  0  0  0  0  0  0  0  0
    3.7321   -1.7673    0.0000 N   0  0  0  0  0  0  0  0  0  0  0  0
    2.8660   -1.2773    0.0000 C   0  0  0  0  0  0  0  0  0  0  0  0
    2.0000   -1.7673    0.0000 C   0  0  0  0  0  0  0  0  0  0  0  0
    2.0000   -2.7673    0.0000 O   0  0  0  0  0  0  0  0  0  0  0  0
    2.8660   -3.2773    0.0000 C   0  0  0  0  0  0  0  0  0  0  0  0
    3.7321   -2.7673    0.0000 C   0  0  0  0  0  0  0  0  0  0  0  0
    7.2241    3.2773    0.0000 C   0  0  0  0  0  0  0  0  0  0  0  0
    8.6659    1.3998    0.0000 H   0  0  0  0  0  0  0  0  0  0  0  0
    7.2169    0.5780    0.0000 H   0  0  0  0  0  0  0  0  0  0  0  0
    4.0611    3.0427    0.0000 H   0  0  0  0  0  0  0  0  0  0  0  0
    4.0611    1.4227    0.0000 H   0  0  0  0  0  0  0  0  0  0  0  0
    6.0010   -0.0773    0.0000 H   0  0  0  0  0  0  0  0  0  0  0  0
    4.3860    0.3153    0.0000 H   0  0  0  0  0  0  0  0  0  0  0  0
    3.9875   -0.3750    0.0000 H   0  0  0  0  0  0  0  0  0  0  0  0
    4.8101   -1.8499    0.0000 H   0  0  0  0  0  0  0  0  0  0  0  0
    5.2087   -1.1597    0.0000 H   0  0  0  0  0  0  0  0  0  0  0  0
    3.2746   -0.7924    0.0000 H   0  0  0  0  0  0  0  0  0  0  0  0
    2.4675   -0.7924    0.0000 H   0  0  0  0  0  0  0  0  0  0  0  0
    1.7879   -1.1847    0.0000 H   0  0  0  0  0  0  0  0  0  0  0  0
    1.3894   -1.8750    0.0000 H   0  0  0  0  0  0  0  0  0  0  0  0
    2.4675   -3.7423    0.0000 H   0  0  0  0  0  0  0  0  0  0  0  0
    3.2746   -3.7423    0.0000 H   0  0  0  0  0  0  0  0  0  0  0  0
    3.9441   -3.3499    0.0000 H   0  0  0  0  0  0  0  0  0  0  0  0
    4.3427   -2.6597    0.0000 H   0  0  0  0  0  0  0  0  0  0  0  0
    7.2169    3.8873    0.0000 H   0  0  0  0  0  0  0  0  0  0  0  0
  1  2  1  0  0  0  0
  2  3  2  0  0  0  0
  3  4  1  0  0  0  0
  4  5  2  0  0  0  0
  5  6  1  0  0  0  0
  6  7  1  0  0  0  0
  7  8  2  0  0  0  0
  8  9  1  0  0  0  0
  9 10  2  0  0  0  0
  5 10  1  0  0  0  0
 10 11  1  0  0  0  0
 11 12  1  0  0  0  0
 12 13  1  0  0  0  0
 13 14  1  0  0  0  0
 14 15  1  0  0  0  0
 15 16  1  0  0  0  0
 16 17  1  0  0  0  0
 17 18  1  0  0  0  0
 18 19  1  0  0  0  0
 14 19  1  0  0  0  0
  6 20  2  0  0  0  0
  2 20  1  0  0  0  0
  3 21  1  0  0  0  0
  4 22  1  0  0  0  0
  8 23  1  0  0  0  0
  9 24  1  0  0  0  0
 11 27  1  0  0  0  0
 12 27  1  0  0  0  0
 12 27  1  0  0  0  0
 13 28  1  0  0  0  0
 13 29  1  0  0  0  0
 15 30  1  0  0  0  0
 15 31  1  0  0  0  0
 16 32  1  0  0  0  0
 16 33  1  0  0  0  0
 18 34  1  0  0  0  0
 18 35  1  0  0  0  0
 19 36  1  0  0  0  0
 19 37  1  0  0  0  0
 20 38  1  0  0  0  0
M  END
> <UNIQUE_SMILES>
ClC1=CC=C2C(=CC=NC2=C1)NCCN3CCOCC3

> <USER_SUPPLIED_SMILES>
ClC1=CC=C2C(N=CC=C2NCCN3CCOCC3)=C1

$$$$
d_5e
APtclcactv03162116352D 0   0.00000     0.00000    64
 
 27 27  0  0  0  0  0  0  0  0999 V2000
    7.2722    2.8168    0.0000 Cl  0  0  0  0  0  0  0  0  0  0  0  0
    6.3981    2.3135    0.0000 C   0  0  0  0  0  0  0  0  0  0  0  0
    6.3981    1.2719    0.0000 C   0  0  0  0  0  0  0  0  0  0  0  0
    5.4920    0.7580    0.0000 C   0  0  0  0  0  0  0  0  0  0  0  0
    4.5981    1.2927    0.0000 C   0  0  0  0  0  0  0  0  0  0  0  0
    4.5981    2.2927    0.0000 C   0  0  0  0  0  0  0  0  0  0  0  0
    3.7321    2.7927    0.0000 N   0  0  0  0  0  0  0  0  0  0  0  0
    2.8660    2.2927    0.0000 C   0  0  0  0  0  0  0  0  0  0  0  0
    2.8660    1.2927    0.0000 C   0  0  0  0  0  0  0  0  0  0  0  0
    3.7321    0.7927    0.0000 C   0  0  0  0  0  0  0  0  0  0  0  0
    3.7321   -0.2073    0.0000 N   0  0  0  0  0  0  0  0  0  0  0  0
    2.8660   -0.7073    0.0000 C   0  0  0  0  0  0  0  0  0  0  0  0
    2.8660   -1.7073    0.0000 C   0  0  0  0  0  0  0  0  0  0  0  0
    2.0000   -2.2073    0.0000 O   0  0  0  0  0  0  0  0  0  0  0  0
    5.4920    2.8273    0.0000 C   0  0  0  0  0  0  0  0  0  0  0  0
    6.9338    0.9598    0.0000 H   0  0  0  0  0  0  0  0  0  0  0  0
    5.4848    0.1380    0.0000 H   0  0  0  0  0  0  0  0  0  0  0  0
    2.3291    2.6027    0.0000 H   0  0  0  0  0  0  0  0  0  0  0  0
    2.3291    0.9827    0.0000 H   0  0  0  0  0  0  0  0  0  0  0  0
    4.2790   -0.5173    0.0000 H   0  0  0  0  0  0  0  0  0  0  0  0
    2.6540   -0.1247    0.0000 H   0  0  0  0  0  0  0  0  0  0  0  0
    2.2754   -0.8150    0.0000 H   0  0  0  0  0  0  0  0  0  0  0  0
    3.0781   -2.2899    0.0000 H   0  0  0  0  0  0  0  0  0  0  0  0
    3.4766   -1.5997    0.0000 H   0  0  0  0  0  0  0  0  0  0  0  0
    2.0000   -2.8273    0.0000 H   0  0  0  0  0  0  0  0  0  0  0  0
    5.4848    3.4473    0.0000 H   0  0  0  0  0  0  0  0  0  0  0  0
  1  2  1  0  0  0  0
  2  3  2  0  0  0  0
  3  4  1  0  0  0  0
  4  5  2  0  0  0  0
  5  6  1  0  0  0  0
  6  7  1  0  0  0  0
  7  8  2  0  0  0  0
  8  9  1  0  0  0  0
  9 10  2  0  0  0  0
  5 10  1  0  0  0  0
 10 11  1  0  0  0  0
 11 12  1  0  0  0  0
 12 13  1  0  0  0  0
 13 14  1  0  0  0  0
  6 15  2  0  0  0  0
  2 15  1  0  0  0  0
  3 16  1  0  0  0  0
  4 17  1  0  0  0  0
  8 18  1  0  0  0  0
  9 19  1  0  0  0  0
 11 20  1  0  0  0  0
 12 21  1  0  0  0  0
 12 22  1  0  0  0  0
 13 23  1  0  0  0  0
 13 24  1  0  0  0  0
 14 27  1  0  0  0  0
 15 27  1  0  0  0  0
M  END
> <UNIQUE_SMILES>
OCCNC1=CC=NC2=CC(=CC=C12)Cl

> <USER_SUPPLIED_SMILES>
ClC1=CC=C2C(N=CC=C2NCCO)=C1

$$$$
d_5f
APtclcactv03162116352D 0   0.00000     0.00000    65
 
 29 30  0  0  0  0  0  0  0  0999 V2000
    7.7991    3.1618    0.0000 Cl  0  0  0  0  0  0  0  0  0  0  0  0
    6.9350    2.6585    0.0000 C   0  0  0  0  0  0  0  0  0  0  0  0
    6.9350    1.6169    0.0000 C   0  0  0  0  0  0  0  0  0  0  0  0
    6.0290    1.1030    0.0000 C   0  0  0  0  0  0  0  0  0  0  0  0
    5.1350    1.6377    0.0000 C   0  0  0  0  0  0  0  0  0  0  0  0
    5.1350    2.6377    0.0000 C   0  0  0  0  0  0  0  0  0  0  0  0
    4.2790    3.1377    0.0000 N   0  0  0  0  0  0  0  0  0  0  0  0
    3.4030    2.6377    0.0000 C   0  0  0  0  0  0  0  0  0  0  0  0
    3.4030    1.6377    0.0000 C   0  0  0  0  0  0  0  0  0  0  0  0
    4.2790    1.1377    0.0000 C   0  0  0  0  0  0  0  0  0  0  0  0
    4.2790    0.1377    0.0000 N   0  0  0  0  0  0  0  0  0  0  0  0
    3.4030   -0.3623    0.0000 C   0  0  0  0  0  0  0  0  0  0  0  0
    3.4030   -1.3623    0.0000 C   0  0  0  0  0  0  0  0  0  0  0  0
    2.5369   -1.8623    0.0000 C   0  0  0  0  0  0  0  0  0  0  0  0
    2.5369   -2.8623    0.0000 O   0  0  0  0  0  0  0  0  0  0  0  0
    6.0290    3.1723    0.0000 C   0  0  0  0  0  0  0  0  0  0  0  0
    7.4708    1.3048    0.0000 H   0  0  0  0  0  0  0  0  0  0  0  0
    6.0218    0.4830    0.0000 H   0  0  0  0  0  0  0  0  0  0  0  0
    2.8660    2.9477    0.0000 H   0  0  0  0  0  0  0  0  0  0  0  0
    2.8660    1.3277    0.0000 H   0  0  0  0  0  0  0  0  0  0  0  0
    4.8059   -0.1723    0.0000 H   0  0  0  0  0  0  0  0  0  0  0  0
    3.1909    0.2203    0.0000 H   0  0  0  0  0  0  0  0  0  0  0  0
    2.7924   -0.4700    0.0000 H   0  0  0  0  0  0  0  0  0  0  0  0
    3.6150   -1.9449    0.0000 H   0  0  0  0  0  0  0  0  0  0  0  0
    4.0135   -1.2747    0.0000 H   0  0  0  0  0  0  0  0  0  0  0  0
    2.3249   -1.2797    0.0000 H   0  0  0  0  0  0  0  0  0  0  0  0
    1.9274   -1.9700    0.0000 H   0  0  0  0  0  0  0  0  0  0  0  0
    2.0000   -3.1723    0.0000 H   0  0  0  0  0  0  0  0  0  0  0  0
    6.0218    3.7923    0.0000 H   0  0  0  0  0  0  0  0  0  0  0  0
  1  2  1  0  0  0  0
  2  3  2  0  0  0  0
  3  4  1  0  0  0  0
  4  5  2  0  0  0  0
  5  6  1  0  0  0  0
  6  7  1  0  0  0  0
  7  8  2  0  0  0  0
  8  9  1  0  0  0  0
  9 10  2  0  0  0  0
  5 10  1  0  0  0  0
 10 11  1  0  0  0  0
 11 12  1  0  0  0  0
 12 13  1  0  0  0  0
 13 14  1  0  0  0  0
 14 15  1  0  0  0  0
  6 16  2  0  0  0  0
  2 16  1  0  0  0  0
  3 17  1  0  0  0  0
  4 18  1  0  0  0  0
  8 19  1  0  0  0  0
  9 20  1  0  0  0  0
 11 21  1  0  0  0  0
 12 22  1  0  0  0  0
 12 23  1  0  0  0  0
 13 24  1  0  0  0  0
 13 27  1  0  0  0  0
 14 27  1  0  0  0  0
 14 27  1  0  0  0  0
 15 28  1  0  0  0  0
 16 29  1  0  0  0  0
M  END
> <UNIQUE_SMILES>
OCCCNC1=CC=NC2=CC(=CC=C12)Cl

> <USER_SUPPLIED_SMILES>
ClC1=CC=C2C(N=CC=C2NCCCO)=C1

$$$$
d_5j
APtclcactv03162116352D 0   0.00000     0.00000    66
 
 32 34  0  0  0  0  0  0  0  0999 V2000
    7.2722    3.2768    0.0000 Cl  0  0  0  0  0  0  0  0  0  0  0  0
    6.3981    2.7535    0.0000 C   0  0  0  0  0  0  0  0  0  0  0  0
    6.3981    1.7119    0.0000 C   0  0  0  0  0  0  0  0  0  0  0  0
    5.4920    1.1980    0.0000 C   0  0  0  0  0  0  0  0  0  0  0  0
    4.5981    1.7327    0.0000 C   0  0  0  0  0  0  0  0  0  0  0  0
    4.5981    2.7327    0.0000 C   0  0  0  0  0  0  0  0  0  0  0  0
    3.7321    3.2327    0.0000 N   0  0  0  0  0  0  0  0  0  0  0  0
    2.8660    2.7327    0.0000 C   0  0  0  0  0  0  0  0  0  0  0  0
    2.8660    1.7327    0.0000 C   0  0  0  0  0  0  0  0  0  0  0  0
    3.7321    1.2327    0.0000 C   0  0  0  0  0  0  0  0  0  0  0  0
    3.7321    0.2327    0.0000 N   0  0  0  0  0  0  0  0  0  0  0  0
    2.8660   -0.2773    0.0000 C   0  0  0  0  0  0  0  0  0  0  0  0
    2.8660   -1.2773    0.0000 C   0  0  0  0  0  0  0  0  0  0  0  0
    2.0000   -1.7673    0.0000 C   0  0  0  0  0  0  0  0  0  0  0  0
    2.0000   -2.7673    0.0000 C   0  0  0  0  0  0  0  0  0  0  0  0
    2.8660   -3.2773    0.0000 C   0  0  0  0  0  0  0  0  0  0  0  0
    3.7321   -2.7673    0.0000 C   0  0  0  0  0  0  0  0  0  0  0  0
    3.7321   -1.7673    0.0000 C   0  0  0  0  0  0  0  0  0  0  0  0
    5.4920    3.2773    0.0000 C   0  0  0  0  0  0  0  0  0  0  0  0
    6.9338    1.3998    0.0000 H   0  0  0  0  0  0  0  0  0  0  0  0
    5.4848    0.5780    0.0000 H   0  0  0  0  0  0  0  0  0  0  0  0
    2.3291    3.0427    0.0000 H   0  0  0  0  0  0  0  0  0  0  0  0
    2.3291    1.4227    0.0000 H   0  0  0  0  0  0  0  0  0  0  0  0
    4.2790   -0.0773    0.0000 H   0  0  0  0  0  0  0  0  0  0  0  0
    2.6540    0.3153    0.0000 H   0  0  0  0  0  0  0  0  0  0  0  0
    2.2754   -0.3750    0.0000 H   0  0  0  0  0  0  0  0  0  0  0  0
    1.4631   -1.4573    0.0000 H   0  0  0  0  0  0  0  0  0  0  0  0
    1.4631   -3.0773    0.0000 H   0  0  0  0  0  0  0  0  0  0  0  0
    2.8660   -3.8873    0.0000 H   0  0  0  0  0  0  0  0  0  0  0  0
    4.2790   -3.0773    0.0000 H   0  0  0  0  0  0  0  0  0  0  0  0
    4.2790   -1.4573    0.0000 H   0  0  0  0  0  0  0  0  0  0  0  0
    5.4848    3.8873    0.0000 H   0  0  0  0  0  0  0  0  0  0  0  0
  1  2  1  0  0  0  0
  2  3  2  0  0  0  0
  3  4  1  0  0  0  0
  4  5  2  0  0  0  0
  5  6  1  0  0  0  0
  6  7  1  0  0  0  0
  7  8  2  0  0  0  0
  8  9  1  0  0  0  0
  9 10  2  0  0  0  0
  5 10  1  0  0  0  0
 10 11  1  0  0  0  0
 11 12  1  0  0  0  0
 12 13  1  0  0  0  0
 13 14  2  0  0  0  0
 14 15  1  0  0  0  0
 15 16  2  0  0  0  0
 16 17  1  0  0  0  0
 17 18  2  0  0  0  0
 13 18  1  0  0  0  0
  6 19  2  0  0  0  0
  2 19  1  0  0  0  0
  3 20  1  0  0  0  0
  4 21  1  0  0  0  0
  8 22  1  0  0  0  0
  9 23  1  0  0  0  0
 11 24  1  0  0  0  0
 12 27  1  0  0  0  0
 12 27  1  0  0  0  0
 14 27  1  0  0  0  0
 15 28  1  0  0  0  0
 16 29  1  0  0  0  0
 17 30  1  0  0  0  0
 18 31  1  0  0  0  0
 19 32  1  0  0  0  0
M  END
> <UNIQUE_SMILES>
ClC1=CC=C2C(=CC=NC2=C1)NCC3=CC=CC=C3

> <USER_SUPPLIED_SMILES>
ClC1=CC=C2C(N=CC=C2NCC3=CC=CC=C3)=C1

$$$$
