C6H8N4S
APtclcactv08192311302D 0   0.00000     0.00000     1
 
 19 19  0  0  0  0  0  0  0  0999 V2000
    7.9575    0.1659    0.0000 N   0  0  0  0  0  0  0  0  0  0  0  0
    7.0064    0.4749    0.0000 C   0  0  0  0  0  0  0  0  0  0  0  0
    6.7985    1.4531    0.0000 S   0  0  0  0  0  0  0  0  0  0  0  0
    6.2633   -0.1942    0.0000 N   0  0  0  0  0  0  0  0  0  0  0  0
    5.3122    0.1148    0.0000 N   0  0  0  0  0  0  0  0  0  0  0  0
    4.5691   -0.5543    0.0000 C   0  0  0  0  0  0  0  0  0  0  0  0
    3.6180   -0.2453    0.0000 C   0  0  0  0  0  0  0  0  0  0  0  0
    3.3090    0.7058    0.0000 C   0  0  0  0  0  0  0  0  0  0  0  0
    2.3090    0.7058    0.0000 C   0  0  0  0  0  0  0  0  0  0  0  0
    2.0000   -0.2453    0.0000 C   0  0  0  0  0  0  0  0  0  0  0  0
    2.8090   -0.8331    0.0000 N   0  0  0  0  0  0  0  0  0  0  0  0
    2.8090   -1.4531    0.0000 H   0  0  0  0  0  0  0  0  0  0  0  0
    8.4182    0.5808    0.0000 H   0  0  0  0  0  0  0  0  0  0  0  0
    8.0864   -0.4405    0.0000 H   0  0  0  0  0  0  0  0  0  0  0  0
    6.3922   -0.8006    0.0000 H   0  0  0  0  0  0  0  0  0  0  0  0
    4.6980   -1.1608    0.0000 H   0  0  0  0  0  0  0  0  0  0  0  0
    3.6734    1.2074    0.0000 H   0  0  0  0  0  0  0  0  0  0  0  0
    1.9446    1.2074    0.0000 H   0  0  0  0  0  0  0  0  0  0  0  0
    1.4103   -0.4369    0.0000 H   0  0  0  0  0  0  0  0  0  0  0  0
  1  2  1  0  0  0  0
  2  3  2  0  0  0  0
  2  4  1  0  0  0  0
  4  5  1  0  0  0  0
  5  6  2  0  0  0  0
  6  7  1  0  0  0  0
  7  8  2  0  0  0  0
  8  9  1  0  0  0  0
  9 10  2  0  0  0  0
 10 11  1  0  0  0  0
 11 12  1  0  0  0  0
  7 11  1  0  0  0  0
  1 13  1  0  0  0  0
  1 14  1  0  0  0  0
  4 15  1  0  0  0  0
  6 16  1  0  0  0  0
  8 17  1  0  0  0  0
  9 18  1  0  0  0  0
 10 19  1  0  0  0  0
M  END
> <UNIQUE_SMILES>
NC(=S)N\N=C\c1[nH]ccc1

> <USER_SUPPLIED_SMILES>
NC(=S)N\N=C\c1ccc[nH]1

$$$$
C6H8N4O
APtclcactv08192311302D 0   0.00000     0.00000     2
 
 19 19  0  0  0  0  0  0  0  0999 V2000
    7.9575    0.1659    0.0000 N   0  0  0  0  0  0  0  0  0  0  0  0
    7.0064    0.4749    0.0000 C   0  0  0  0  0  0  0  0  0  0  0  0
    6.7985    1.4531    0.0000 O   0  0  0  0  0  0  0  0  0  0  0  0
    6.2633   -0.1942    0.0000 N   0  0  0  0  0  0  0  0  0  0  0  0
    5.3122    0.1148    0.0000 N   0  0  0  0  0  0  0  0  0  0  0  0
    4.5691   -0.5543    0.0000 C   0  0  0  0  0  0  0  0  0  0  0  0
    3.6180   -0.2453    0.0000 C   0  0  0  0  0  0  0  0  0  0  0  0
    3.3090    0.7058    0.0000 C   0  0  0  0  0  0  0  0  0  0  0  0
    2.3090    0.7058    0.0000 C   0  0  0  0  0  0  0  0  0  0  0  0
    2.0000   -0.2453    0.0000 C   0  0  0  0  0  0  0  0  0  0  0  0
    2.8090   -0.8331    0.0000 N   0  0  0  0  0  0  0  0  0  0  0  0
    2.8090   -1.4531    0.0000 H   0  0  0  0  0  0  0  0  0  0  0  0
    8.4182    0.5808    0.0000 H   0  0  0  0  0  0  0  0  0  0  0  0
    8.0864   -0.4405    0.0000 H   0  0  0  0  0  0  0  0  0  0  0  0
    6.3922   -0.8006    0.0000 H   0  0  0  0  0  0  0  0  0  0  0  0
    4.6980   -1.1608    0.0000 H   0  0  0  0  0  0  0  0  0  0  0  0
    3.6734    1.2074    0.0000 H   0  0  0  0  0  0  0  0  0  0  0  0
    1.9446    1.2074    0.0000 H   0  0  0  0  0  0  0  0  0  0  0  0
    1.4103   -0.4369    0.0000 H   0  0  0  0  0  0  0  0  0  0  0  0
  1  2  1  0  0  0  0
  2  3  2  0  0  0  0
  2  4  1  0  0  0  0
  4  5  1  0  0  0  0
  5  6  2  0  0  0  0
  6  7  1  0  0  0  0
  7  8  2  0  0  0  0
  8  9  1  0  0  0  0
  9 10  2  0  0  0  0
 10 11  1  0  0  0  0
 11 12  1  0  0  0  0
  7 11  1  0  0  0  0
  1 13  1  0  0  0  0
  1 14  1  0  0  0  0
  4 15  1  0  0  0  0
  6 16  1  0  0  0  0
  8 17  1  0  0  0  0
  9 18  1  0  0  0  0
 10 19  1  0  0  0  0
M  END
> <UNIQUE_SMILES>
NC(=O)N\N=C\c1[nH]ccc1

> <USER_SUPPLIED_SMILES>
NC(=O)N\N=C\c1ccc[nH]1

$$$$
C10H14N4S
APtclcactv08192311302D 0   0.00000     0.00000     3
 
 29 29  0  0  0  0  0  0  0  0999 V2000
    2.0000   -3.9050    0.0000 C   0  0  0  0  0  0  0  0  0  0  0  0
    2.8660   -3.4050    0.0000 N   0  0  0  0  0  0  0  0  0  0  0  0
    3.7321   -3.9050    0.0000 C   0  0  0  0  0  0  0  0  0  0  0  0
    2.8660   -2.4050    0.0000 C   0  0  0  0  0  0  0  0  0  0  0  0
    3.7321   -1.9050    0.0000 C   0  0  0  0  0  0  0  0  0  0  0  0
    3.7321   -0.9050    0.0000 C   0  0  0  0  0  0  0  0  0  0  0  0
    2.8660   -0.4050    0.0000 C   0  0  0  0  0  0  0  0  0  0  0  0
    2.8660    0.5950    0.0000 C   0  0  0  0  0  0  0  0  0  0  0  0
    3.7321    1.0950    0.0000 N   0  0  0  0  0  0  0  0  0  0  0  0
    3.7321    2.0950    0.0000 N   0  0  0  0  0  0  0  0  0  0  0  0
    4.5981    2.5950    0.0000 C   0  0  0  0  0  0  0  0  0  0  0  0
    4.5981    3.5950    0.0000 N   0  0  0  0  0  0  0  0  0  0  0  0
    5.4641    2.0950    0.0000 S   0  0  0  0  0  0  0  0  0  0  0  0
    2.0000   -0.9050    0.0000 C   0  0  0  0  0  0  0  0  0  0  0  0
    2.0000   -1.9050    0.0000 C   0  0  0  0  0  0  0  0  0  0  0  0
    1.6900   -3.3681    0.0000 H   0  0  0  0  0  0  0  0  0  0  0  0
    1.4631   -4.2150    0.0000 H   0  0  0  0  0  0  0  0  0  0  0  0
    2.3100   -4.4419    0.0000 H   0  0  0  0  0  0  0  0  0  0  0  0
    3.4221   -4.4419    0.0000 H   0  0  0  0  0  0  0  0  0  0  0  0
    4.2690   -4.2150    0.0000 H   0  0  0  0  0  0  0  0  0  0  0  0
    4.0421   -3.3681    0.0000 H   0  0  0  0  0  0  0  0  0  0  0  0
    4.2690   -2.2150    0.0000 H   0  0  0  0  0  0  0  0  0  0  0  0
    4.2690   -0.5950    0.0000 H   0  0  0  0  0  0  0  0  0  0  0  0
    2.3291    0.9050    0.0000 H   0  0  0  0  0  0  0  0  0  0  0  0
    3.1951    2.4050    0.0000 H   0  0  0  0  0  0  0  0  0  0  0  0
    5.1350    3.9050    0.0000 H   0  0  0  0  0  0  0  0  0  0  0  0
    4.0611    3.9050    0.0000 H   0  0  0  0  0  0  0  0  0  0  0  0
    1.4631   -0.5950    0.0000 H   0  0  0  0  0  0  0  0  0  0  0  0
    1.4631   -2.2150    0.0000 H   0  0  0  0  0  0  0  0  0  0  0  0
  1  2  1  0  0  0  0
  2  3  1  0  0  0  0
  2  4  1  0  0  0  0
  4  5  1  0  0  0  0
  5  6  2  0  0  0  0
  6  7  1  0  0  0  0
  7  8  1  0  0  0  0
  8  9  2  0  0  0  0
  9 10  1  0  0  0  0
 10 11  1  0  0  0  0
 11 12  1  0  0  0  0
 11 13  2  0  0  0  0
  7 14  2  0  0  0  0
 14 15  1  0  0  0  0
  4 15  2  0  0  0  0
  1 16  1  0  0  0  0
  1 17  1  0  0  0  0
  1 18  1  0  0  0  0
  3 19  1  0  0  0  0
  3 20  1  0  0  0  0
  3 21  1  0  0  0  0
  5 22  1  0  0  0  0
  6 23  1  0  0  0  0
  8 24  1  0  0  0  0
 10 25  1  0  0  0  0
 12 26  1  0  0  0  0
 12 27  1  0  0  0  0
 14 28  1  0  0  0  0
 15 29  1  0  0  0  0
M  END
> <UNIQUE_SMILES>
CN(C)c1ccc(cc1)\C=N\NC(N)=S

> <USER_SUPPLIED_SMILES>
CN(C)c1ccc(\C=N\NC(N)=S)cc1

$$$$
C10H14N4O
APtclcactv08192311302D 0   0.00000     0.00000     4
 
 29 29  0  0  0  0  0  0  0  0999 V2000
    2.0000   -3.9050    0.0000 C   0  0  0  0  0  0  0  0  0  0  0  0
    2.8660   -3.4050    0.0000 N   0  0  0  0  0  0  0  0  0  0  0  0
    3.7321   -3.9050    0.0000 C   0  0  0  0  0  0  0  0  0  0  0  0
    2.8660   -2.4050    0.0000 C   0  0  0  0  0  0  0  0  0  0  0  0
    3.7321   -1.9050    0.0000 C   0  0  0  0  0  0  0  0  0  0  0  0
    3.7321   -0.9050    0.0000 C   0  0  0  0  0  0  0  0  0  0  0  0
    2.8660   -0.4050    0.0000 C   0  0  0  0  0  0  0  0  0  0  0  0
    2.8660    0.5950    0.0000 C   0  0  0  0  0  0  0  0  0  0  0  0
    3.7321    1.0950    0.0000 N   0  0  0  0  0  0  0  0  0  0  0  0
    3.7321    2.0950    0.0000 N   0  0  0  0  0  0  0  0  0  0  0  0
    4.5981    2.5950    0.0000 C   0  0  0  0  0  0  0  0  0  0  0  0
    4.5981    3.5950    0.0000 N   0  0  0  0  0  0  0  0  0  0  0  0
    5.4641    2.0950    0.0000 O   0  0  0  0  0  0  0  0  0  0  0  0
    2.0000   -0.9050    0.0000 C   0  0  0  0  0  0  0  0  0  0  0  0
    2.0000   -1.9050    0.0000 C   0  0  0  0  0  0  0  0  0  0  0  0
    1.6900   -3.3681    0.0000 H   0  0  0  0  0  0  0  0  0  0  0  0
    1.4631   -4.2150    0.0000 H   0  0  0  0  0  0  0  0  0  0  0  0
    2.3100   -4.4419    0.0000 H   0  0  0  0  0  0  0  0  0  0  0  0
    3.4221   -4.4419    0.0000 H   0  0  0  0  0  0  0  0  0  0  0  0
    4.2690   -4.2150    0.0000 H   0  0  0  0  0  0  0  0  0  0  0  0
    4.0421   -3.3681    0.0000 H   0  0  0  0  0  0  0  0  0  0  0  0
    4.2690   -2.2150    0.0000 H   0  0  0  0  0  0  0  0  0  0  0  0
    4.2690   -0.5950    0.0000 H   0  0  0  0  0  0  0  0  0  0  0  0
    2.3291    0.9050    0.0000 H   0  0  0  0  0  0  0  0  0  0  0  0
    3.1951    2.4050    0.0000 H   0  0  0  0  0  0  0  0  0  0  0  0
    5.1350    3.9050    0.0000 H   0  0  0  0  0  0  0  0  0  0  0  0
    4.0611    3.9050    0.0000 H   0  0  0  0  0  0  0  0  0  0  0  0
    1.4631   -0.5950    0.0000 H   0  0  0  0  0  0  0  0  0  0  0  0
    1.4631   -2.2150    0.0000 H   0  0  0  0  0  0  0  0  0  0  0  0
  1  2  1  0  0  0  0
  2  3  1  0  0  0  0
  2  4  1  0  0  0  0
  4  5  1  0  0  0  0
  5  6  2  0  0  0  0
  6  7  1  0  0  0  0
  7  8  1  0  0  0  0
  8  9  2  0  0  0  0
  9 10  1  0  0  0  0
 10 11  1  0  0  0  0
 11 12  1  0  0  0  0
 11 13  2  0  0  0  0
  7 14  2  0  0  0  0
 14 15  1  0  0  0  0
  4 15  2  0  0  0  0
  1 16  1  0  0  0  0
  1 17  1  0  0  0  0
  1 18  1  0  0  0  0
  3 19  1  0  0  0  0
  3 20  1  0  0  0  0
  3 21  1  0  0  0  0
  5 22  1  0  0  0  0
  6 23  1  0  0  0  0
  8 24  1  0  0  0  0
 10 25  1  0  0  0  0
 12 26  1  0  0  0  0
 12 27  1  0  0  0  0
 14 28  1  0  0  0  0
 15 29  1  0  0  0  0
M  END
> <UNIQUE_SMILES>
CN(C)c1ccc(cc1)\C=N\NC(N)=O

> <USER_SUPPLIED_SMILES>
CN(C)c1ccc(\C=N\NC(N)=O)cc1

$$$$
C10H15N5
APtclcactv08192311302D 0   0.00000     0.00000     5
 
 30 30  0  0  0  0  0  0  0  0999 V2000
    2.0000   -3.9050    0.0000 C   0  0  0  0  0  0  0  0  0  0  0  0
    2.8660   -3.4050    0.0000 N   0  0  0  0  0  0  0  0  0  0  0  0
    3.7321   -3.9050    0.0000 C   0  0  0  0  0  0  0  0  0  0  0  0
    2.8660   -2.4050    0.0000 C   0  0  0  0  0  0  0  0  0  0  0  0
    3.7321   -1.9050    0.0000 C   0  0  0  0  0  0  0  0  0  0  0  0
    3.7321   -0.9050    0.0000 C   0  0  0  0  0  0  0  0  0  0  0  0
    2.8660   -0.4050    0.0000 C   0  0  0  0  0  0  0  0  0  0  0  0
    2.8660    0.5950    0.0000 C   0  0  0  0  0  0  0  0  0  0  0  0
    3.7321    1.0950    0.0000 N   0  0  0  0  0  0  0  0  0  0  0  0
    3.7321    2.0950    0.0000 N   0  0  0  0  0  0  0  0  0  0  0  0
    4.5981    2.5950    0.0000 C   0  0  0  0  0  0  0  0  0  0  0  0
    4.5981    3.5950    0.0000 N   0  0  0  0  0  0  0  0  0  0  0  0
    5.4641    2.0950    0.0000 N   0  0  0  0  0  0  0  0  0  0  0  0
    2.0000   -0.9050    0.0000 C   0  0  0  0  0  0  0  0  0  0  0  0
    2.0000   -1.9050    0.0000 C   0  0  0  0  0  0  0  0  0  0  0  0
    1.6900   -3.3681    0.0000 H   0  0  0  0  0  0  0  0  0  0  0  0
    1.4631   -4.2150    0.0000 H   0  0  0  0  0  0  0  0  0  0  0  0
    2.3100   -4.4419    0.0000 H   0  0  0  0  0  0  0  0  0  0  0  0
    3.4221   -4.4419    0.0000 H   0  0  0  0  0  0  0  0  0  0  0  0
    4.2690   -4.2150    0.0000 H   0  0  0  0  0  0  0  0  0  0  0  0
    4.0421   -3.3681    0.0000 H   0  0  0  0  0  0  0  0  0  0  0  0
    4.2690   -2.2150    0.0000 H   0  0  0  0  0  0  0  0  0  0  0  0
    4.2690   -0.5950    0.0000 H   0  0  0  0  0  0  0  0  0  0  0  0
    2.3291    0.9050    0.0000 H   0  0  0  0  0  0  0  0  0  0  0  0
    3.1951    2.4050    0.0000 H   0  0  0  0  0  0  0  0  0  0  0  0
    5.1350    3.9050    0.0000 H   0  0  0  0  0  0  0  0  0  0  0  0
    4.0611    3.9050    0.0000 H   0  0  0  0  0  0  0  0  0  0  0  0
    6.0010    2.4050    0.0000 H   0  0  0  0  0  0  0  0  0  0  0  0
    1.4631   -0.5950    0.0000 H   0  0  0  0  0  0  0  0  0  0  0  0
    1.4631   -2.2150    0.0000 H   0  0  0  0  0  0  0  0  0  0  0  0
  1  2  1  0  0  0  0
  2  3  1  0  0  0  0
  2  4  1  0  0  0  0
  4  5  1  0  0  0  0
  5  6  2  0  0  0  0
  6  7  1  0  0  0  0
  7  8  1  0  0  0  0
  8  9  2  0  0  0  0
  9 10  1  0  0  0  0
 10 11  1  0  0  0  0
 11 12  1  0  0  0  0
 11 13  2  0  0  0  0
  7 14  2  0  0  0  0
 14 15  1  0  0  0  0
  4 15  2  0  0  0  0
  1 16  1  0  0  0  0
  1 17  1  0  0  0  0
  1 18  1  0  0  0  0
  3 19  1  0  0  0  0
  3 20  1  0  0  0  0
  3 21  1  0  0  0  0
  5 22  1  0  0  0  0
  6 23  1  0  0  0  0
  8 24  1  0  0  0  0
 10 25  1  0  0  0  0
 12 26  1  0  0  0  0
 12 27  1  0  0  0  0
 13 28  1  0  0  0  0
 14 29  1  0  0  0  0
 15 30  1  0  0  0  0
M  END
> <UNIQUE_SMILES>
CN(C)c1ccc(cc1)\C=N\NC(N)=N

> <USER_SUPPLIED_SMILES>
CN(C)c1ccc(\C=N\NC(N)=N)cc1

$$$$
C6H8N4S
APtclcactv08192311302D 0   0.00000     0.00000     6
 
 19 19  0  0  0  0  0  0  0  0999 V2000
    6.8870   -1.4339    0.0000 N   0  0  0  0  0  0  0  0  0  0  0  0
    5.9360   -1.1249    0.0000 C   0  0  0  0  0  0  0  0  0  0  0  0
    5.1928   -1.7940    0.0000 N   0  0  0  0  0  0  0  0  0  0  0  0
    5.7281   -0.1468    0.0000 N   0  0  0  0  0  0  0  0  0  0  0  0
    4.7770    0.1623    0.0000 N   0  0  0  0  0  0  0  0  0  0  0  0
    4.5691    1.1404    0.0000 C   0  0  0  0  0  0  0  0  0  0  0  0
    3.6180    1.4494    0.0000 C   0  0  0  0  0  0  0  0  0  0  0  0
    3.3090    2.4005    0.0000 C   0  0  0  0  0  0  0  0  0  0  0  0
    2.3090    2.4005    0.0000 C   0  0  0  0  0  0  0  0  0  0  0  0
    2.0000    1.4494    0.0000 C   0  0  0  0  0  0  0  0  0  0  0  0
    2.8090    0.8616    0.0000 S   0  0  0  0  0  0  0  0  0  0  0  0
    7.0159   -2.0404    0.0000 H   0  0  0  0  0  0  0  0  0  0  0  0
    7.3478   -1.0191    0.0000 H   0  0  0  0  0  0  0  0  0  0  0  0
    5.3217   -2.4005    0.0000 H   0  0  0  0  0  0  0  0  0  0  0  0
    6.1888    0.2681    0.0000 H   0  0  0  0  0  0  0  0  0  0  0  0
    5.0298    1.5553    0.0000 H   0  0  0  0  0  0  0  0  0  0  0  0
    3.6734    2.9021    0.0000 H   0  0  0  0  0  0  0  0  0  0  0  0
    1.9446    2.9021    0.0000 H   0  0  0  0  0  0  0  0  0  0  0  0
    1.4103    1.2578    0.0000 H   0  0  0  0  0  0  0  0  0  0  0  0
  1  2  1  0  0  0  0
  2  3  2  0  0  0  0
  2  4  1  0  0  0  0
  4  5  1  0  0  0  0
  5  6  2  0  0  0  0
  6  7  1  0  0  0  0
  7  8  2  0  0  0  0
  8  9  1  0  0  0  0
  9 10  2  0  0  0  0
 10 11  1  0  0  0  0
  7 11  1  0  0  0  0
  1 12  1  0  0  0  0
  1 13  1  0  0  0  0
  3 14  1  0  0  0  0
  4 15  1  0  0  0  0
  6 16  1  0  0  0  0
  8 17  1  0  0  0  0
  9 18  1  0  0  0  0
 10 19  1  0  0  0  0
M  END
> <UNIQUE_SMILES>
NC(=N)N\N=C\c1sccc1

> <USER_SUPPLIED_SMILES>
NC(=N)N\N=C\c1cccs1

$$$$
C8H10N4O
APtclcactv08192311302D 0   0.00000     0.00000     7
 
 23 23  0  0  0  0  0  0  0  0999 V2000
    2.0000    0.3450    0.0000 C   0  0  0  0  0  0  0  0  0  0  0  0
    2.8660   -0.1550    0.0000 C   0  0  0  0  0  0  0  0  0  0  0  0
    3.7321    0.3450    0.0000 N   0  0  0  0  0  0  0  0  0  0  0  0
    3.7321    1.3450    0.0000 N   0  0  0  0  0  0  0  0  0  0  0  0
    4.5981    1.8450    0.0000 C   0  0  0  0  0  0  0  0  0  0  0  0
    4.5981    2.8450    0.0000 N   0  0  0  0  0  0  0  0  0  0  0  0
    5.4641    1.3450    0.0000 O   0  0  0  0  0  0  0  0  0  0  0  0
    2.8660   -1.1550    0.0000 C   0  0  0  0  0  0  0  0  0  0  0  0
    2.0000   -1.6550    0.0000 C   0  0  0  0  0  0  0  0  0  0  0  0
    2.0000   -2.6550    0.0000 C   0  0  0  0  0  0  0  0  0  0  0  0
    2.8660   -3.1550    0.0000 N   0  0  0  0  0  0  0  0  0  0  0  0
    3.7321   -2.6550    0.0000 C   0  0  0  0  0  0  0  0  0  0  0  0
    3.7321   -1.6550    0.0000 C   0  0  0  0  0  0  0  0  0  0  0  0
    2.3100    0.8819    0.0000 H   0  0  0  0  0  0  0  0  0  0  0  0
    1.4631    0.6550    0.0000 H   0  0  0  0  0  0  0  0  0  0  0  0
    1.6900   -0.1919    0.0000 H   0  0  0  0  0  0  0  0  0  0  0  0
    3.1951    1.6550    0.0000 H   0  0  0  0  0  0  0  0  0  0  0  0
    5.1350    3.1550    0.0000 H   0  0  0  0  0  0  0  0  0  0  0  0
    4.0611    3.1550    0.0000 H   0  0  0  0  0  0  0  0  0  0  0  0
    1.4631   -1.3450    0.0000 H   0  0  0  0  0  0  0  0  0  0  0  0
    1.4631   -2.9650    0.0000 H   0  0  0  0  0  0  0  0  0  0  0  0
    4.2690   -2.9650    0.0000 H   0  0  0  0  0  0  0  0  0  0  0  0
    4.2690   -1.3450    0.0000 H   0  0  0  0  0  0  0  0  0  0  0  0
  1  2  1  0  0  0  0
  2  3  2  0  0  0  0
  3  4  1  0  0  0  0
  4  5  1  0  0  0  0
  5  6  1  0  0  0  0
  5  7  2  0  0  0  0
  2  8  1  0  0  0  0
  8  9  1  0  0  0  0
  9 10  2  0  0  0  0
 10 11  1  0  0  0  0
 11 12  2  0  0  0  0
 12 13  1  0  0  0  0
  8 13  2  0  0  0  0
  1 14  1  0  0  0  0
  1 15  1  0  0  0  0
  1 16  1  0  0  0  0
  4 17  1  0  0  0  0
  6 18  1  0  0  0  0
  6 19  1  0  0  0  0
  9 20  1  0  0  0  0
 10 21  1  0  0  0  0
 12 22  1  0  0  0  0
 13 23  1  0  0  0  0
M  END
> <UNIQUE_SMILES>
C\C(=N/NC(N)=O)c1ccncc1

> <USER_SUPPLIED_SMILES>
C\C(=N/NC(N)=O)c1ccncc1

$$$$
C14H13N3OS
APtclcactv08192311302D 0   0.00000     0.00000     8
 
 32 33  0  0  0  0  0  0  0  0999 V2000
    6.3301    4.3450    0.0000 N   0  0  0  0  0  0  0  0  0  0  0  0
    6.3301    3.3450    0.0000 C   0  0  0  0  0  0  0  0  0  0  0  0
    7.1962    2.8450    0.0000 O   0  0  0  0  0  0  0  0  0  0  0  0
    5.4641    2.8450    0.0000 N   0  0  0  0  0  0  0  0  0  0  0  0
    5.4641    1.8450    0.0000 N   0  0  0  0  0  0  0  0  0  0  0  0
    4.5981    1.3450    0.0000 C   0  0  0  0  0  0  0  0  0  0  0  0
    4.5981    0.3450    0.0000 C   0  0  0  0  0  0  0  0  0  0  0  0
    3.7321   -0.1550    0.0000 C   0  0  0  0  0  0  0  0  0  0  0  0
    3.7321   -1.1550    0.0000 C   0  0  0  0  0  0  0  0  0  0  0  0
    4.5981   -1.6550    0.0000 C   0  0  0  0  0  0  0  0  0  0  0  0
    4.5981   -2.6550    0.0000 S   0  0  0  0  0  0  0  0  0  0  0  0
    3.7321   -3.1550    0.0000 C   0  0  0  0  0  0  0  0  0  0  0  0
    2.8660   -2.6550    0.0000 C   0  0  0  0  0  0  0  0  0  0  0  0
    2.0000   -3.1550    0.0000 C   0  0  0  0  0  0  0  0  0  0  0  0
    2.0000   -4.1550    0.0000 C   0  0  0  0  0  0  0  0  0  0  0  0
    2.8660   -4.6550    0.0000 C   0  0  0  0  0  0  0  0  0  0  0  0
    3.7321   -4.1550    0.0000 C   0  0  0  0  0  0  0  0  0  0  0  0
    5.4641   -1.1550    0.0000 C   0  0  0  0  0  0  0  0  0  0  0  0
    5.4641   -0.1550    0.0000 C   0  0  0  0  0  0  0  0  0  0  0  0
    6.8671    4.6550    0.0000 H   0  0  0  0  0  0  0  0  0  0  0  0
    5.7932    4.6550    0.0000 H   0  0  0  0  0  0  0  0  0  0  0  0
    4.9272    3.1550    0.0000 H   0  0  0  0  0  0  0  0  0  0  0  0
    4.0611    1.6550    0.0000 H   0  0  0  0  0  0  0  0  0  0  0  0
    3.1951    0.1550    0.0000 H   0  0  0  0  0  0  0  0  0  0  0  0
    3.1951   -1.4650    0.0000 H   0  0  0  0  0  0  0  0  0  0  0  0
    2.8660   -2.0350    0.0000 H   0  0  0  0  0  0  0  0  0  0  0  0
    1.4631   -2.8450    0.0000 H   0  0  0  0  0  0  0  0  0  0  0  0
    1.4631   -4.4650    0.0000 H   0  0  0  0  0  0  0  0  0  0  0  0
    2.8660   -5.2750    0.0000 H   0  0  0  0  0  0  0  0  0  0  0  0
    4.2690   -4.4650    0.0000 H   0  0  0  0  0  0  0  0  0  0  0  0
    6.0010   -1.4650    0.0000 H   0  0  0  0  0  0  0  0  0  0  0  0
    6.0010    0.1550    0.0000 H   0  0  0  0  0  0  0  0  0  0  0  0
  1  2  1  0  0  0  0
  2  3  2  0  0  0  0
  2  4  1  0  0  0  0
  4  5  1  0  0  0  0
  5  6  2  0  0  0  0
  6  7  1  0  0  0  0
  7  8  1  0  0  0  0
  8  9  2  0  0  0  0
  9 10  1  0  0  0  0
 10 11  1  0  0  0  0
 11 12  1  0  0  0  0
 12 13  1  0  0  0  0
 13 14  2  0  0  0  0
 14 15  1  0  0  0  0
 15 16  2  0  0  0  0
 16 17  1  0  0  0  0
 12 17  2  0  0  0  0
 10 18  2  0  0  0  0
 18 19  1  0  0  0  0
  7 19  2  0  0  0  0
  1 20  1  0  0  0  0
  1 21  1  0  0  0  0
  4 22  1  0  0  0  0
  6 23  1  0  0  0  0
  8 24  1  0  0  0  0
  9 25  1  0  0  0  0
 13 26  1  0  0  0  0
 14 27  1  0  0  0  0
 15 28  1  0  0  0  0
 16 29  1  0  0  0  0
 17 30  1  0  0  0  0
 18 31  1  0  0  0  0
 19 32  1  0  0  0  0
M  END
> <UNIQUE_SMILES>
NC(=O)N\N=C\c1ccc(Sc2ccccc2)cc1

> <USER_SUPPLIED_SMILES>
NC(=O)N\N=C\c1ccc(Sc2ccccc2)cc1

$$$$
C14H14N4S
APtclcactv08192311302D 0   0.00000     0.00000     9
 
 33 34  0  0  0  0  0  0  0  0999 V2000
    6.3301    4.3450    0.0000 N   0  0  0  0  0  0  0  0  0  0  0  0
    6.3301    3.3450    0.0000 C   0  0  0  0  0  0  0  0  0  0  0  0
    7.1962    2.8450    0.0000 N   0  0  0  0  0  0  0  0  0  0  0  0
    5.4641    2.8450    0.0000 N   0  0  0  0  0  0  0  0  0  0  0  0
    5.4641    1.8450    0.0000 N   0  0  0  0  0  0  0  0  0  0  0  0
    4.5981    1.3450    0.0000 C   0  0  0  0  0  0  0  0  0  0  0  0
    4.5981    0.3450    0.0000 C   0  0  0  0  0  0  0  0  0  0  0  0
    3.7321   -0.1550    0.0000 C   0  0  0  0  0  0  0  0  0  0  0  0
    3.7321   -1.1550    0.0000 C   0  0  0  0  0  0  0  0  0  0  0  0
    4.5981   -1.6550    0.0000 C   0  0  0  0  0  0  0  0  0  0  0  0
    4.5981   -2.6550    0.0000 S   0  0  0  0  0  0  0  0  0  0  0  0
    3.7321   -3.1550    0.0000 C   0  0  0  0  0  0  0  0  0  0  0  0
    2.8660   -2.6550    0.0000 C   0  0  0  0  0  0  0  0  0  0  0  0
    2.0000   -3.1550    0.0000 C   0  0  0  0  0  0  0  0  0  0  0  0
    2.0000   -4.1550    0.0000 C   0  0  0  0  0  0  0  0  0  0  0  0
    2.8660   -4.6550    0.0000 C   0  0  0  0  0  0  0  0  0  0  0  0
    3.7321   -4.1550    0.0000 C   0  0  0  0  0  0  0  0  0  0  0  0
    5.4641   -1.1550    0.0000 C   0  0  0  0  0  0  0  0  0  0  0  0
    5.4641   -0.1550    0.0000 C   0  0  0  0  0  0  0  0  0  0  0  0
    6.8671    4.6550    0.0000 H   0  0  0  0  0  0  0  0  0  0  0  0
    5.7932    4.6550    0.0000 H   0  0  0  0  0  0  0  0  0  0  0  0
    7.7331    3.1550    0.0000 H   0  0  0  0  0  0  0  0  0  0  0  0
    4.9272    3.1550    0.0000 H   0  0  0  0  0  0  0  0  0  0  0  0
    4.0611    1.6550    0.0000 H   0  0  0  0  0  0  0  0  0  0  0  0
    3.1951    0.1550    0.0000 H   0  0  0  0  0  0  0  0  0  0  0  0
    3.1951   -1.4650    0.0000 H   0  0  0  0  0  0  0  0  0  0  0  0
    2.8660   -2.0350    0.0000 H   0  0  0  0  0  0  0  0  0  0  0  0
    1.4631   -2.8450    0.0000 H   0  0  0  0  0  0  0  0  0  0  0  0
    1.4631   -4.4650    0.0000 H   0  0  0  0  0  0  0  0  0  0  0  0
    2.8660   -5.2750    0.0000 H   0  0  0  0  0  0  0  0  0  0  0  0
    4.2690   -4.4650    0.0000 H   0  0  0  0  0  0  0  0  0  0  0  0
    6.0010   -1.4650    0.0000 H   0  0  0  0  0  0  0  0  0  0  0  0
    6.0010    0.1550    0.0000 H   0  0  0  0  0  0  0  0  0  0  0  0
  1  2  1  0  0  0  0
  2  3  2  0  0  0  0
  2  4  1  0  0  0  0
  4  5  1  0  0  0  0
  5  6  2  0  0  0  0
  6  7  1  0  0  0  0
  7  8  1  0  0  0  0
  8  9  2  0  0  0  0
  9 10  1  0  0  0  0
 10 11  1  0  0  0  0
 11 12  1  0  0  0  0
 12 13  1  0  0  0  0
 13 14  2  0  0  0  0
 14 15  1  0  0  0  0
 15 16  2  0  0  0  0
 16 17  1  0  0  0  0
 12 17  2  0  0  0  0
 10 18  2  0  0  0  0
 18 19  1  0  0  0  0
  7 19  2  0  0  0  0
  1 20  1  0  0  0  0
  1 21  1  0  0  0  0
  3 22  1  0  0  0  0
  4 23  1  0  0  0  0
  6 24  1  0  0  0  0
  8 25  1  0  0  0  0
  9 26  1  0  0  0  0
 13 27  1  0  0  0  0
 14 28  1  0  0  0  0
 15 29  1  0  0  0  0
 16 30  1  0  0  0  0
 17 31  1  0  0  0  0
 18 32  1  0  0  0  0
 19 33  1  0  0  0  0
M  END
> <UNIQUE_SMILES>
NC(=N)N\N=C\c1ccc(Sc2ccccc2)cc1

> <USER_SUPPLIED_SMILES>
NC(=N)N\N=C\c1ccc(Sc2ccccc2)cc1

$$$$
C14H13N3S2
APtclcactv08192311302D 0   0.00000     0.00000    10
 
 32 33  0  0  0  0  0  0  0  0999 V2000
    6.3301    4.3450    0.0000 N   0  0  0  0  0  0  0  0  0  0  0  0
    6.3301    3.3450    0.0000 C   0  0  0  0  0  0  0  0  0  0  0  0
    7.1962    2.8450    0.0000 S   0  0  0  0  0  0  0  0  0  0  0  0
    5.4641    2.8450    0.0000 N   0  0  0  0  0  0  0  0  0  0  0  0
    5.4641    1.8450    0.0000 N   0  0  0  0  0  0  0  0  0  0  0  0
    4.5981    1.3450    0.0000 C   0  0  0  0  0  0  0  0  0  0  0  0
    4.5981    0.3450    0.0000 C   0  0  0  0  0  0  0  0  0  0  0  0
    3.7321   -0.1550    0.0000 C   0  0  0  0  0  0  0  0  0  0  0  0
    3.7321   -1.1550    0.0000 C   0  0  0  0  0  0  0  0  0  0  0  0
    4.5981   -1.6550    0.0000 C   0  0  0  0  0  0  0  0  0  0  0  0
    4.5981   -2.6550    0.0000 S   0  0  0  0  0  0  0  0  0  0  0  0
    3.7321   -3.1550    0.0000 C   0  0  0  0  0  0  0  0  0  0  0  0
    2.8660   -2.6550    0.0000 C   0  0  0  0  0  0  0  0  0  0  0  0
    2.0000   -3.1550    0.0000 C   0  0  0  0  0  0  0  0  0  0  0  0
    2.0000   -4.1550    0.0000 C   0  0  0  0  0  0  0  0  0  0  0  0
    2.8660   -4.6550    0.0000 C   0  0  0  0  0  0  0  0  0  0  0  0
    3.7321   -4.1550    0.0000 C   0  0  0  0  0  0  0  0  0  0  0  0
    5.4641   -1.1550    0.0000 C   0  0  0  0  0  0  0  0  0  0  0  0
    5.4641   -0.1550    0.0000 C   0  0  0  0  0  0  0  0  0  0  0  0
    6.8671    4.6550    0.0000 H   0  0  0  0  0  0  0  0  0  0  0  0
    5.7932    4.6550    0.0000 H   0  0  0  0  0  0  0  0  0  0  0  0
    4.9272    3.1550    0.0000 H   0  0  0  0  0  0  0  0  0  0  0  0
    4.0611    1.6550    0.0000 H   0  0  0  0  0  0  0  0  0  0  0  0
    3.1951    0.1550    0.0000 H   0  0  0  0  0  0  0  0  0  0  0  0
    3.1951   -1.4650    0.0000 H   0  0  0  0  0  0  0  0  0  0  0  0
    2.8660   -2.0350    0.0000 H   0  0  0  0  0  0  0  0  0  0  0  0
    1.4631   -2.8450    0.0000 H   0  0  0  0  0  0  0  0  0  0  0  0
    1.4631   -4.4650    0.0000 H   0  0  0  0  0  0  0  0  0  0  0  0
    2.8660   -5.2750    0.0000 H   0  0  0  0  0  0  0  0  0  0  0  0
    4.2690   -4.4650    0.0000 H   0  0  0  0  0  0  0  0  0  0  0  0
    6.0010   -1.4650    0.0000 H   0  0  0  0  0  0  0  0  0  0  0  0
    6.0010    0.1550    0.0000 H   0  0  0  0  0  0  0  0  0  0  0  0
  1  2  1  0  0  0  0
  2  3  2  0  0  0  0
  2  4  1  0  0  0  0
  4  5  1  0  0  0  0
  5  6  2  0  0  0  0
  6  7  1  0  0  0  0
  7  8  1  0  0  0  0
  8  9  2  0  0  0  0
  9 10  1  0  0  0  0
 10 11  1  0  0  0  0
 11 12  1  0  0  0  0
 12 13  1  0  0  0  0
 13 14  2  0  0  0  0
 14 15  1  0  0  0  0
 15 16  2  0  0  0  0
 16 17  1  0  0  0  0
 12 17  2  0  0  0  0
 10 18  2  0  0  0  0
 18 19  1  0  0  0  0
  7 19  2  0  0  0  0
  1 20  1  0  0  0  0
  1 21  1  0  0  0  0
  4 22  1  0  0  0  0
  6 23  1  0  0  0  0
  8 24  1  0  0  0  0
  9 25  1  0  0  0  0
 13 26  1  0  0  0  0
 14 27  1  0  0  0  0
 15 28  1  0  0  0  0
 16 29  1  0  0  0  0
 17 30  1  0  0  0  0
 18 31  1  0  0  0  0
 19 32  1  0  0  0  0
M  END
> <UNIQUE_SMILES>
NC(=S)N\N=C\c1ccc(Sc2ccccc2)cc1

> <USER_SUPPLIED_SMILES>
NC(=S)N\N=C\c1ccc(Sc2ccccc2)cc1

$$$$
C6H8N2O2S2
APtclcactv08192311302D 0   0.00000     0.00000    11
 
 20 20  0  0  0  0  0  0  0  0999 V2000
    6.1439   -2.2518    0.0000 C   0  0  0  0  0  0  0  0  0  0  0  0
    5.9360   -1.2736    0.0000 S   0  0  0  0  0  0  0  0  0  0  0  0
    6.9141   -1.0657    0.0000 O   0  0  0  0  0  0  0  0  0  0  0  0
    4.9578   -1.4815    0.0000 O   0  0  0  0  0  0  0  0  0  0  0  0
    5.7281   -0.2955    0.0000 N   0  0  0  0  0  0  0  0  0  0  0  0
    4.7770    0.0135    0.0000 N   0  0  0  0  0  0  0  0  0  0  0  0
    4.5691    0.9917    0.0000 C   0  0  0  0  0  0  0  0  0  0  0  0
    3.6180    1.3007    0.0000 C   0  0  0  0  0  0  0  0  0  0  0  0
    3.3090    2.2518    0.0000 C   0  0  0  0  0  0  0  0  0  0  0  0
    2.3090    2.2518    0.0000 C   0  0  0  0  0  0  0  0  0  0  0  0
    2.0000    1.3007    0.0000 C   0  0  0  0  0  0  0  0  0  0  0  0
    2.8090    0.7129    0.0000 S   0  0  0  0  0  0  0  0  0  0  0  0
    5.5374   -2.3807    0.0000 H   0  0  0  0  0  0  0  0  0  0  0  0
    6.2728   -2.8582    0.0000 H   0  0  0  0  0  0  0  0  0  0  0  0
    6.7503   -2.1229    0.0000 H   0  0  0  0  0  0  0  0  0  0  0  0
    6.1888    0.1194    0.0000 H   0  0  0  0  0  0  0  0  0  0  0  0
    5.0298    1.4066    0.0000 H   0  0  0  0  0  0  0  0  0  0  0  0
    3.6734    2.7534    0.0000 H   0  0  0  0  0  0  0  0  0  0  0  0
    1.9446    2.7534    0.0000 H   0  0  0  0  0  0  0  0  0  0  0  0
    1.4103    1.1091    0.0000 H   0  0  0  0  0  0  0  0  0  0  0  0
  1  2  1  0  0  0  0
  2  3  2  0  0  0  0
  2  4  2  0  0  0  0
  2  5  1  0  0  0  0
  5  6  1  0  0  0  0
  6  7  2  0  0  0  0
  7  8  1  0  0  0  0
  8  9  2  0  0  0  0
  9 10  1  0  0  0  0
 10 11  2  0  0  0  0
 11 12  1  0  0  0  0
  8 12  1  0  0  0  0
  1 13  1  0  0  0  0
  1 14  1  0  0  0  0
  1 15  1  0  0  0  0
  5 16  1  0  0  0  0
  7 17  1  0  0  0  0
  9 18  1  0  0  0  0
 10 19  1  0  0  0  0
 11 20  1  0  0  0  0
M  END
> <UNIQUE_SMILES>
C[S](=O)(=O)N\N=C\c1sccc1

> <USER_SUPPLIED_SMILES>
CS(=O)(=O)N\N=C\c1cccs1

$$$$
C6H6N4O4
APtclcactv08192311302D 0   0.00000     0.00000    12
 
 20 20  0  0  0  0  0  0  0  0999 V2000
    9.6517    0.2056    0.0000 N   0  0  0  0  0  0  0  0  0  0  0  0
    8.7006    0.5146    0.0000 C   0  0  0  0  0  0  0  0  0  0  0  0
    8.4927    1.4928    0.0000 O   0  0  0  0  0  0  0  0  0  0  0  0
    7.9575   -0.1545    0.0000 N   0  0  0  0  0  0  0  0  0  0  0  0
    7.0064    0.1545    0.0000 N   0  0  0  0  0  0  0  0  0  0  0  0
    6.2633   -0.5146    0.0000 C   0  0  0  0  0  0  0  0  0  0  0  0
    5.3122   -0.2056    0.0000 C   0  0  0  0  0  0  0  0  0  0  0  0
    5.0032    0.7455    0.0000 C   0  0  0  0  0  0  0  0  0  0  0  0
    4.0032    0.7455    0.0000 C   0  0  0  0  0  0  0  0  0  0  0  0
    3.6942   -0.2056    0.0000 C   0  0  0  0  0  0  0  0  0  0  0  0
    4.5032   -0.7934    0.0000 O   0  0  0  0  0  0  0  0  0  0  0  0
    2.7431   -0.5146    0.0000 N   0  3  0  0  0  0  0  0  0  0  0  0
    2.0000    0.1545    0.0000 O   0  5  0  0  0  0  0  0  0  0  0  0
    2.5352   -1.4928    0.0000 O   0  0  0  0  0  0  0  0  0  0  0  0
   10.1124    0.6205    0.0000 H   0  0  0  0  0  0  0  0  0  0  0  0
    9.7806   -0.4008    0.0000 H   0  0  0  0  0  0  0  0  0  0  0  0
    8.0864   -0.7610    0.0000 H   0  0  0  0  0  0  0  0  0  0  0  0
    6.3922   -1.1211    0.0000 H   0  0  0  0  0  0  0  0  0  0  0  0
    5.3676    1.2470    0.0000 H   0  0  0  0  0  0  0  0  0  0  0  0
    3.6388    1.2470    0.0000 H   0  0  0  0  0  0  0  0  0  0  0  0
  1  2  1  0  0  0  0
  2  3  2  0  0  0  0
  2  4  1  0  0  0  0
  4  5  1  0  0  0  0
  5  6  2  0  0  0  0
  6  7  1  0  0  0  0
  7  8  2  0  0  0  0
  8  9  1  0  0  0  0
  9 10  2  0  0  0  0
 10 11  1  0  0  0  0
  7 11  1  0  0  0  0
 10 12  1  0  0  0  0
 12 13  1  0  0  0  0
 12 14  2  0  0  0  0
  1 15  1  0  0  0  0
  1 16  1  0  0  0  0
  4 17  1  0  0  0  0
  6 18  1  0  0  0  0
  8 19  1  0  0  0  0
  9 20  1  0  0  0  0
M  CHG  2  12   1  13  -1
M  END
> <UNIQUE_SMILES>
NC(=O)N\N=C\c1oc(cc1)[N+]([O-])=O

> <USER_SUPPLIED_SMILES>
NC(=O)N\N=C\c1ccc(o1)[N+]([O-])=O

$$$$
C14H12N2O2
APtclcactv08192311302D 0   0.00000     0.00000    13
 
 30 31  0  0  0  0  0  0  0  0999 V2000
    2.8660    0.4806    0.0000 O   0  0  0  0  0  0  0  0  0  0  0  0
    3.7321   -0.0194    0.0000 C   0  0  0  0  0  0  0  0  0  0  0  0
    4.5981    0.4806    0.0000 N   0  0  0  0  0  0  0  0  0  0  0  0
    4.5981    1.4806    0.0000 N   0  0  0  0  0  0  0  0  0  0  0  0
    5.4641    1.9806    0.0000 C   0  0  0  0  0  0  0  0  0  0  0  0
    5.4641    2.9806    0.0000 C   0  0  0  0  0  0  0  0  0  0  0  0
    6.2731    3.5684    0.0000 C   0  0  0  0  0  0  0  0  0  0  0  0
    5.9641    4.5194    0.0000 C   0  0  0  0  0  0  0  0  0  0  0  0
    4.9641    4.5194    0.0000 C   0  0  0  0  0  0  0  0  0  0  0  0
    4.6551    3.5684    0.0000 O   0  0  0  0  0  0  0  0  0  0  0  0
    3.7321   -1.0194    0.0000 C   0  0  0  0  0  0  0  0  0  0  0  0
    2.8660   -1.5194    0.0000 C   0  0  0  0  0  0  0  0  0  0  0  0
    2.8660   -2.5194    0.0000 C   0  0  0  0  0  0  0  0  0  0  0  0
    2.0000   -3.0194    0.0000 C   0  0  0  0  0  0  0  0  0  0  0  0
    2.0000   -4.0194    0.0000 C   0  0  0  0  0  0  0  0  0  0  0  0
    2.8660   -4.5194    0.0000 C   0  0  0  0  0  0  0  0  0  0  0  0
    3.7321   -4.0194    0.0000 C   0  0  0  0  0  0  0  0  0  0  0  0
    3.7321   -3.0194    0.0000 C   0  0  0  0  0  0  0  0  0  0  0  0
    5.1350    0.1706    0.0000 H   0  0  0  0  0  0  0  0  0  0  0  0
    6.0010    1.6706    0.0000 H   0  0  0  0  0  0  0  0  0  0  0  0
    6.8628    3.3768    0.0000 H   0  0  0  0  0  0  0  0  0  0  0  0
    6.3285    5.0210    0.0000 H   0  0  0  0  0  0  0  0  0  0  0  0
    4.5997    5.0210    0.0000 H   0  0  0  0  0  0  0  0  0  0  0  0
    4.2690   -1.3294    0.0000 H   0  0  0  0  0  0  0  0  0  0  0  0
    2.3291   -1.2094    0.0000 H   0  0  0  0  0  0  0  0  0  0  0  0
    1.4631   -2.7094    0.0000 H   0  0  0  0  0  0  0  0  0  0  0  0
    1.4631   -4.3294    0.0000 H   0  0  0  0  0  0  0  0  0  0  0  0
    2.8660   -5.1394    0.0000 H   0  0  0  0  0  0  0  0  0  0  0  0
    4.2690   -4.3294    0.0000 H   0  0  0  0  0  0  0  0  0  0  0  0
    4.2690   -2.7094    0.0000 H   0  0  0  0  0  0  0  0  0  0  0  0
  1  2  2  0  0  0  0
  2  3  1  0  0  0  0
  3  4  1  0  0  0  0
  4  5  2  0  0  0  0
  5  6  1  0  0  0  0
  6  7  2  0  0  0  0
  7  8  1  0  0  0  0
  8  9  2  0  0  0  0
  9 10  1  0  0  0  0
  6 10  1  0  0  0  0
  2 11  1  0  0  0  0
 11 12  2  0  0  0  0
 12 13  1  0  0  0  0
 13 14  1  0  0  0  0
 14 15  2  0  0  0  0
 15 16  1  0  0  0  0
 16 17  2  0  0  0  0
 17 18  1  0  0  0  0
 13 18  2  0  0  0  0
  3 19  1  0  0  0  0
  5 20  1  0  0  0  0
  7 21  1  0  0  0  0
  8 22  1  0  0  0  0
  9 23  1  0  0  0  0
 11 24  1  0  0  0  0
 12 25  1  0  0  0  0
 14 26  1  0  0  0  0
 15 27  1  0  0  0  0
 16 28  1  0  0  0  0
 17 29  1  0  0  0  0
 18 30  1  0  0  0  0
M  END
> <UNIQUE_SMILES>
O=C(N\N=C\c1occc1)\C=C\c2ccccc2

> <USER_SUPPLIED_SMILES>
O=C(N\N=C\c1ccco1)\C=C\c1ccccc1

$$$$
C14H11N3O4
APtclcactv08192311302D 0   0.00000     0.00000    14
 
 32 33  0  0  0  0  0  0  0  0999 V2000
    6.1452    5.3807    0.0000 O   0  5  0  0  0  0  0  0  0  0  0  0
    6.5519    4.4672    0.0000 N   0  3  0  0  0  0  0  0  0  0  0  0
    7.5464    4.3626    0.0000 O   0  0  0  0  0  0  0  0  0  0  0  0
    5.9641    3.6581    0.0000 C   0  0  0  0  0  0  0  0  0  0  0  0
    4.9641    3.6581    0.0000 C   0  0  0  0  0  0  0  0  0  0  0  0
    4.6551    2.7071    0.0000 C   0  0  0  0  0  0  0  0  0  0  0  0
    5.4641    2.1193    0.0000 C   0  0  0  0  0  0  0  0  0  0  0  0
    5.4641    1.1193    0.0000 C   0  0  0  0  0  0  0  0  0  0  0  0
    4.5981    0.6193    0.0000 N   0  0  0  0  0  0  0  0  0  0  0  0
    4.5981   -0.3807    0.0000 N   0  0  0  0  0  0  0  0  0  0  0  0
    3.7321   -0.8807    0.0000 C   0  0  0  0  0  0  0  0  0  0  0  0
    2.8660   -0.3807    0.0000 O   0  0  0  0  0  0  0  0  0  0  0  0
    3.7321   -1.8807    0.0000 C   0  0  0  0  0  0  0  0  0  0  0  0
    2.8660   -2.3807    0.0000 C   0  0  0  0  0  0  0  0  0  0  0  0
    2.8660   -3.3807    0.0000 C   0  0  0  0  0  0  0  0  0  0  0  0
    2.0000   -3.8807    0.0000 C   0  0  0  0  0  0  0  0  0  0  0  0
    2.0000   -4.8807    0.0000 C   0  0  0  0  0  0  0  0  0  0  0  0
    2.8660   -5.3807    0.0000 C   0  0  0  0  0  0  0  0  0  0  0  0
    3.7321   -4.8807    0.0000 C   0  0  0  0  0  0  0  0  0  0  0  0
    3.7321   -3.8807    0.0000 C   0  0  0  0  0  0  0  0  0  0  0  0
    6.2731    2.7071    0.0000 O   0  0  0  0  0  0  0  0  0  0  0  0
    4.5997    4.1597    0.0000 H   0  0  0  0  0  0  0  0  0  0  0  0
    4.0654    2.5155    0.0000 H   0  0  0  0  0  0  0  0  0  0  0  0
    6.0010    0.8093    0.0000 H   0  0  0  0  0  0  0  0  0  0  0  0
    5.1350   -0.6907    0.0000 H   0  0  0  0  0  0  0  0  0  0  0  0
    4.2690   -2.1907    0.0000 H   0  0  0  0  0  0  0  0  0  0  0  0
    2.3291   -2.0707    0.0000 H   0  0  0  0  0  0  0  0  0  0  0  0
    1.4631   -3.5707    0.0000 H   0  0  0  0  0  0  0  0  0  0  0  0
    1.4631   -5.1907    0.0000 H   0  0  0  0  0  0  0  0  0  0  0  0
    2.8660   -6.0007    0.0000 H   0  0  0  0  0  0  0  0  0  0  0  0
    4.2690   -5.1907    0.0000 H   0  0  0  0  0  0  0  0  0  0  0  0
    4.2690   -3.5707    0.0000 H   0  0  0  0  0  0  0  0  0  0  0  0
  1  2  1  0  0  0  0
  2  3  2  0  0  0  0
  2  4  1  0  0  0  0
  4  5  2  0  0  0  0
  5  6  1  0  0  0  0
  6  7  2  0  0  0  0
  7  8  1  0  0  0  0
  8  9  2  0  0  0  0
  9 10  1  0  0  0  0
 10 11  1  0  0  0  0
 11 12  2  0  0  0  0
 11 13  1  0  0  0  0
 13 14  2  0  0  0  0
 14 15  1  0  0  0  0
 15 16  1  0  0  0  0
 16 17  2  0  0  0  0
 17 18  1  0  0  0  0
 18 19  2  0  0  0  0
 19 20  1  0  0  0  0
 15 20  2  0  0  0  0
  7 21  1  0  0  0  0
  4 21  1  0  0  0  0
  5 22  1  0  0  0  0
  6 23  1  0  0  0  0
  8 24  1  0  0  0  0
 10 25  1  0  0  0  0
 13 26  1  0  0  0  0
 14 27  1  0  0  0  0
 16 28  1  0  0  0  0
 17 29  1  0  0  0  0
 18 30  1  0  0  0  0
 19 31  1  0  0  0  0
 20 32  1  0  0  0  0
M  CHG  2   1  -1   2   1
M  END
> <UNIQUE_SMILES>
[O-][N+](=O)c1oc(cc1)\C=N\NC(=O)\C=C\c2ccccc2

> <USER_SUPPLIED_SMILES>
[O-][N+](=O)c1ccc(\C=N\NC(=O)\C=C\c2ccccc2)o1

$$$$
C15H14N2O2
APtclcactv08192311302D 0   0.00000     0.00000    15
 
 33 34  0  0  0  0  0  0  0  0999 V2000
    6.3301    1.4806    0.0000 C   0  0  0  0  0  0  0  0  0  0  0  0
    5.4641    1.9806    0.0000 C   0  0  0  0  0  0  0  0  0  0  0  0
    4.5981    1.4806    0.0000 N   0  0  0  0  0  0  0  0  0  0  0  0
    4.5981    0.4806    0.0000 N   0  0  0  0  0  0  0  0  0  0  0  0
    3.7321   -0.0194    0.0000 C   0  0  0  0  0  0  0  0  0  0  0  0
    2.8660    0.4806    0.0000 O   0  0  0  0  0  0  0  0  0  0  0  0
    3.7321   -1.0194    0.0000 C   0  0  0  0  0  0  0  0  0  0  0  0
    2.8660   -1.5194    0.0000 C   0  0  0  0  0  0  0  0  0  0  0  0
    2.8660   -2.5194    0.0000 C   0  0  0  0  0  0  0  0  0  0  0  0
    2.0000   -3.0194    0.0000 C   0  0  0  0  0  0  0  0  0  0  0  0
    2.0000   -4.0194    0.0000 C   0  0  0  0  0  0  0  0  0  0  0  0
    2.8660   -4.5194    0.0000 C   0  0  0  0  0  0  0  0  0  0  0  0
    3.7321   -4.0194    0.0000 C   0  0  0  0  0  0  0  0  0  0  0  0
    3.7321   -3.0194    0.0000 C   0  0  0  0  0  0  0  0  0  0  0  0
    5.4641    2.9806    0.0000 C   0  0  0  0  0  0  0  0  0  0  0  0
    6.2731    3.5684    0.0000 C   0  0  0  0  0  0  0  0  0  0  0  0
    5.9641    4.5194    0.0000 C   0  0  0  0  0  0  0  0  0  0  0  0
    4.9641    4.5194    0.0000 C   0  0  0  0  0  0  0  0  0  0  0  0
    4.6551    3.5684    0.0000 O   0  0  0  0  0  0  0  0  0  0  0  0
    6.0201    0.9436    0.0000 H   0  0  0  0  0  0  0  0  0  0  0  0
    6.8671    1.1706    0.0000 H   0  0  0  0  0  0  0  0  0  0  0  0
    6.6401    2.0175    0.0000 H   0  0  0  0  0  0  0  0  0  0  0  0
    5.1350    0.1706    0.0000 H   0  0  0  0  0  0  0  0  0  0  0  0
    4.2690   -1.3294    0.0000 H   0  0  0  0  0  0  0  0  0  0  0  0
    2.3291   -1.2094    0.0000 H   0  0  0  0  0  0  0  0  0  0  0  0
    1.4631   -2.7094    0.0000 H   0  0  0  0  0  0  0  0  0  0  0  0
    1.4631   -4.3294    0.0000 H   0  0  0  0  0  0  0  0  0  0  0  0
    2.8660   -5.1394    0.0000 H   0  0  0  0  0  0  0  0  0  0  0  0
    4.2690   -4.3294    0.0000 H   0  0  0  0  0  0  0  0  0  0  0  0
    4.2690   -2.7094    0.0000 H   0  0  0  0  0  0  0  0  0  0  0  0
    6.8628    3.3768    0.0000 H   0  0  0  0  0  0  0  0  0  0  0  0
    6.3285    5.0210    0.0000 H   0  0  0  0  0  0  0  0  0  0  0  0
    4.5997    5.0210    0.0000 H   0  0  0  0  0  0  0  0  0  0  0  0
  1  2  1  0  0  0  0
  2  3  2  0  0  0  0
  3  4  1  0  0  0  0
  4  5  1  0  0  0  0
  5  6  2  0  0  0  0
  5  7  1  0  0  0  0
  7  8  2  0  0  0  0
  8  9  1  0  0  0  0
  9 10  1  0  0  0  0
 10 11  2  0  0  0  0
 11 12  1  0  0  0  0
 12 13  2  0  0  0  0
 13 14  1  0  0  0  0
  9 14  2  0  0  0  0
  2 15  1  0  0  0  0
 15 16  2  0  0  0  0
 16 17  1  0  0  0  0
 17 18  2  0  0  0  0
 18 19  1  0  0  0  0
 15 19  1  0  0  0  0
  1 20  1  0  0  0  0
  1 21  1  0  0  0  0
  1 22  1  0  0  0  0
  4 23  1  0  0  0  0
  7 24  1  0  0  0  0
  8 25  1  0  0  0  0
 10 26  1  0  0  0  0
 11 27  1  0  0  0  0
 12 28  1  0  0  0  0
 13 29  1  0  0  0  0
 14 30  1  0  0  0  0
 16 31  1  0  0  0  0
 17 32  1  0  0  0  0
 18 33  1  0  0  0  0
M  END
> <UNIQUE_SMILES>
C\C(=N/NC(=O)\C=C\c1ccccc1)c2occc2

> <USER_SUPPLIED_SMILES>
C\C(=N/NC(=O)\C=C\c1ccccc1)c1ccco1

$$$$
C14H12N2OS
APtclcactv08192311302D 0   0.00000     0.00000    16
 
 30 31  0  0  0  0  0  0  0  0999 V2000
    2.8660    0.4806    0.0000 O   0  0  0  0  0  0  0  0  0  0  0  0
    3.7321   -0.0194    0.0000 C   0  0  0  0  0  0  0  0  0  0  0  0
    4.5981    0.4806    0.0000 N   0  0  0  0  0  0  0  0  0  0  0  0
    4.5981    1.4806    0.0000 N   0  0  0  0  0  0  0  0  0  0  0  0
    5.4641    1.9806    0.0000 C   0  0  0  0  0  0  0  0  0  0  0  0
    5.4641    2.9806    0.0000 C   0  0  0  0  0  0  0  0  0  0  0  0
    6.2731    3.5684    0.0000 C   0  0  0  0  0  0  0  0  0  0  0  0
    5.9641    4.5194    0.0000 C   0  0  0  0  0  0  0  0  0  0  0  0
    4.9641    4.5194    0.0000 C   0  0  0  0  0  0  0  0  0  0  0  0
    4.6551    3.5684    0.0000 S   0  0  0  0  0  0  0  0  0  0  0  0
    3.7321   -1.0194    0.0000 C   0  0  0  0  0  0  0  0  0  0  0  0
    2.8660   -1.5194    0.0000 C   0  0  0  0  0  0  0  0  0  0  0  0
    2.8660   -2.5194    0.0000 C   0  0  0  0  0  0  0  0  0  0  0  0
    2.0000   -3.0194    0.0000 C   0  0  0  0  0  0  0  0  0  0  0  0
    2.0000   -4.0194    0.0000 C   0  0  0  0  0  0  0  0  0  0  0  0
    2.8660   -4.5194    0.0000 C   0  0  0  0  0  0  0  0  0  0  0  0
    3.7321   -4.0194    0.0000 C   0  0  0  0  0  0  0  0  0  0  0  0
    3.7321   -3.0194    0.0000 C   0  0  0  0  0  0  0  0  0  0  0  0
    5.1350    0.1706    0.0000 H   0  0  0  0  0  0  0  0  0  0  0  0
    6.0010    1.6706    0.0000 H   0  0  0  0  0  0  0  0  0  0  0  0
    6.8628    3.3768    0.0000 H   0  0  0  0  0  0  0  0  0  0  0  0
    6.3285    5.0210    0.0000 H   0  0  0  0  0  0  0  0  0  0  0  0
    4.5997    5.0210    0.0000 H   0  0  0  0  0  0  0  0  0  0  0  0
    4.2690   -1.3294    0.0000 H   0  0  0  0  0  0  0  0  0  0  0  0
    2.3291   -1.2094    0.0000 H   0  0  0  0  0  0  0  0  0  0  0  0
    1.4631   -2.7094    0.0000 H   0  0  0  0  0  0  0  0  0  0  0  0
    1.4631   -4.3294    0.0000 H   0  0  0  0  0  0  0  0  0  0  0  0
    2.8660   -5.1394    0.0000 H   0  0  0  0  0  0  0  0  0  0  0  0
    4.2690   -4.3294    0.0000 H   0  0  0  0  0  0  0  0  0  0  0  0
    4.2690   -2.7094    0.0000 H   0  0  0  0  0  0  0  0  0  0  0  0
  1  2  2  0  0  0  0
  2  3  1  0  0  0  0
  3  4  1  0  0  0  0
  4  5  2  0  0  0  0
  5  6  1  0  0  0  0
  6  7  2  0  0  0  0
  7  8  1  0  0  0  0
  8  9  2  0  0  0  0
  9 10  1  0  0  0  0
  6 10  1  0  0  0  0
  2 11  1  0  0  0  0
 11 12  2  0  0  0  0
 12 13  1  0  0  0  0
 13 14  1  0  0  0  0
 14 15  2  0  0  0  0
 15 16  1  0  0  0  0
 16 17  2  0  0  0  0
 17 18  1  0  0  0  0
 13 18  2  0  0  0  0
  3 19  1  0  0  0  0
  5 20  1  0  0  0  0
  7 21  1  0  0  0  0
  8 22  1  0  0  0  0
  9 23  1  0  0  0  0
 11 24  1  0  0  0  0
 12 25  1  0  0  0  0
 14 26  1  0  0  0  0
 15 27  1  0  0  0  0
 16 28  1  0  0  0  0
 17 29  1  0  0  0  0
 18 30  1  0  0  0  0
M  END
> <UNIQUE_SMILES>
O=C(N\N=C\c1sccc1)\C=C\c2ccccc2

> <USER_SUPPLIED_SMILES>
O=C(N\N=C\c1cccs1)\C=C\c1ccccc1

$$$$
C14H11N3O3S
APtclcactv08192311302D 0   0.00000     0.00000    17
 
 32 33  0  0  0  0  0  0  0  0999 V2000
    6.1452    5.3807    0.0000 O   0  5  0  0  0  0  0  0  0  0  0  0
    6.5519    4.4672    0.0000 N   0  3  0  0  0  0  0  0  0  0  0  0
    7.5464    4.3626    0.0000 O   0  0  0  0  0  0  0  0  0  0  0  0
    5.9641    3.6581    0.0000 C   0  0  0  0  0  0  0  0  0  0  0  0
    4.9641    3.6581    0.0000 C   0  0  0  0  0  0  0  0  0  0  0  0
    4.6551    2.7071    0.0000 C   0  0  0  0  0  0  0  0  0  0  0  0
    5.4641    2.1193    0.0000 C   0  0  0  0  0  0  0  0  0  0  0  0
    5.4641    1.1193    0.0000 C   0  0  0  0  0  0  0  0  0  0  0  0
    4.5981    0.6193    0.0000 N   0  0  0  0  0  0  0  0  0  0  0  0
    4.5981   -0.3807    0.0000 N   0  0  0  0  0  0  0  0  0  0  0  0
    3.7321   -0.8807    0.0000 C   0  0  0  0  0  0  0  0  0  0  0  0
    2.8660   -0.3807    0.0000 O   0  0  0  0  0  0  0  0  0  0  0  0
    3.7321   -1.8807    0.0000 C   0  0  0  0  0  0  0  0  0  0  0  0
    2.8660   -2.3807    0.0000 C   0  0  0  0  0  0  0  0  0  0  0  0
    2.8660   -3.3807    0.0000 C   0  0  0  0  0  0  0  0  0  0  0  0
    2.0000   -3.8807    0.0000 C   0  0  0  0  0  0  0  0  0  0  0  0
    2.0000   -4.8807    0.0000 C   0  0  0  0  0  0  0  0  0  0  0  0
    2.8660   -5.3807    0.0000 C   0  0  0  0  0  0  0  0  0  0  0  0
    3.7321   -4.8807    0.0000 C   0  0  0  0  0  0  0  0  0  0  0  0
    3.7321   -3.8807    0.0000 C   0  0  0  0  0  0  0  0  0  0  0  0
    6.2731    2.7071    0.0000 S   0  0  0  0  0  0  0  0  0  0  0  0
    4.5997    4.1597    0.0000 H   0  0  0  0  0  0  0  0  0  0  0  0
    4.0654    2.5155    0.0000 H   0  0  0  0  0  0  0  0  0  0  0  0
    6.0010    0.8093    0.0000 H   0  0  0  0  0  0  0  0  0  0  0  0
    5.1350   -0.6907    0.0000 H   0  0  0  0  0  0  0  0  0  0  0  0
    4.2690   -2.1907    0.0000 H   0  0  0  0  0  0  0  0  0  0  0  0
    2.3291   -2.0707    0.0000 H   0  0  0  0  0  0  0  0  0  0  0  0
    1.4631   -3.5707    0.0000 H   0  0  0  0  0  0  0  0  0  0  0  0
    1.4631   -5.1907    0.0000 H   0  0  0  0  0  0  0  0  0  0  0  0
    2.8660   -6.0007    0.0000 H   0  0  0  0  0  0  0  0  0  0  0  0
    4.2690   -5.1907    0.0000 H   0  0  0  0  0  0  0  0  0  0  0  0
    4.2690   -3.5707    0.0000 H   0  0  0  0  0  0  0  0  0  0  0  0
  1  2  1  0  0  0  0
  2  3  2  0  0  0  0
  2  4  1  0  0  0  0
  4  5  2  0  0  0  0
  5  6  1  0  0  0  0
  6  7  2  0  0  0  0
  7  8  1  0  0  0  0
  8  9  2  0  0  0  0
  9 10  1  0  0  0  0
 10 11  1  0  0  0  0
 11 12  2  0  0  0  0
 11 13  1  0  0  0  0
 13 14  2  0  0  0  0
 14 15  1  0  0  0  0
 15 16  1  0  0  0  0
 16 17  2  0  0  0  0
 17 18  1  0  0  0  0
 18 19  2  0  0  0  0
 19 20  1  0  0  0  0
 15 20  2  0  0  0  0
  7 21  1  0  0  0  0
  4 21  1  0  0  0  0
  5 22  1  0  0  0  0
  6 23  1  0  0  0  0
  8 24  1  0  0  0  0
 10 25  1  0  0  0  0
 13 26  1  0  0  0  0
 14 27  1  0  0  0  0
 16 28  1  0  0  0  0
 17 29  1  0  0  0  0
 18 30  1  0  0  0  0
 19 31  1  0  0  0  0
 20 32  1  0  0  0  0
M  CHG  2   1  -1   2   1
M  END
> <UNIQUE_SMILES>
[O-][N+](=O)c1sc(cc1)\C=N\NC(=O)\C=C\c2ccccc2

> <USER_SUPPLIED_SMILES>
[O-][N+](=O)c1ccc(\C=N\NC(=O)\C=C\c2ccccc2)s1

$$$$
C15H14N2OS
APtclcactv08192311302D 0   0.00000     0.00000    18
 
 33 34  0  0  0  0  0  0  0  0999 V2000
    6.3301    1.4806    0.0000 C   0  0  0  0  0  0  0  0  0  0  0  0
    5.4641    1.9806    0.0000 C   0  0  0  0  0  0  0  0  0  0  0  0
    4.5981    1.4806    0.0000 N   0  0  0  0  0  0  0  0  0  0  0  0
    4.5981    0.4806    0.0000 N   0  0  0  0  0  0  0  0  0  0  0  0
    3.7321   -0.0194    0.0000 C   0  0  0  0  0  0  0  0  0  0  0  0
    2.8660    0.4806    0.0000 O   0  0  0  0  0  0  0  0  0  0  0  0
    3.7321   -1.0194    0.0000 C   0  0  0  0  0  0  0  0  0  0  0  0
    2.8660   -1.5194    0.0000 C   0  0  0  0  0  0  0  0  0  0  0  0
    2.8660   -2.5194    0.0000 C   0  0  0  0  0  0  0  0  0  0  0  0
    2.0000   -3.0194    0.0000 C   0  0  0  0  0  0  0  0  0  0  0  0
    2.0000   -4.0194    0.0000 C   0  0  0  0  0  0  0  0  0  0  0  0
    2.8660   -4.5194    0.0000 C   0  0  0  0  0  0  0  0  0  0  0  0
    3.7321   -4.0194    0.0000 C   0  0  0  0  0  0  0  0  0  0  0  0
    3.7321   -3.0194    0.0000 C   0  0  0  0  0  0  0  0  0  0  0  0
    5.4641    2.9806    0.0000 C   0  0  0  0  0  0  0  0  0  0  0  0
    6.2731    3.5684    0.0000 C   0  0  0  0  0  0  0  0  0  0  0  0
    5.9641    4.5194    0.0000 C   0  0  0  0  0  0  0  0  0  0  0  0
    4.9641    4.5194    0.0000 C   0  0  0  0  0  0  0  0  0  0  0  0
    4.6551    3.5684    0.0000 S   0  0  0  0  0  0  0  0  0  0  0  0
    6.0201    0.9436    0.0000 H   0  0  0  0  0  0  0  0  0  0  0  0
    6.8671    1.1706    0.0000 H   0  0  0  0  0  0  0  0  0  0  0  0
    6.6401    2.0175    0.0000 H   0  0  0  0  0  0  0  0  0  0  0  0
    5.1350    0.1706    0.0000 H   0  0  0  0  0  0  0  0  0  0  0  0
    4.2690   -1.3294    0.0000 H   0  0  0  0  0  0  0  0  0  0  0  0
    2.3291   -1.2094    0.0000 H   0  0  0  0  0  0  0  0  0  0  0  0
    1.4631   -2.7094    0.0000 H   0  0  0  0  0  0  0  0  0  0  0  0
    1.4631   -4.3294    0.0000 H   0  0  0  0  0  0  0  0  0  0  0  0
    2.8660   -5.1394    0.0000 H   0  0  0  0  0  0  0  0  0  0  0  0
    4.2690   -4.3294    0.0000 H   0  0  0  0  0  0  0  0  0  0  0  0
    4.2690   -2.7094    0.0000 H   0  0  0  0  0  0  0  0  0  0  0  0
    6.8628    3.3768    0.0000 H   0  0  0  0  0  0  0  0  0  0  0  0
    6.3285    5.0210    0.0000 H   0  0  0  0  0  0  0  0  0  0  0  0
    4.5997    5.0210    0.0000 H   0  0  0  0  0  0  0  0  0  0  0  0
  1  2  1  0  0  0  0
  2  3  2  0  0  0  0
  3  4  1  0  0  0  0
  4  5  1  0  0  0  0
  5  6  2  0  0  0  0
  5  7  1  0  0  0  0
  7  8  2  0  0  0  0
  8  9  1  0  0  0  0
  9 10  1  0  0  0  0
 10 11  2  0  0  0  0
 11 12  1  0  0  0  0
 12 13  2  0  0  0  0
 13 14  1  0  0  0  0
  9 14  2  0  0  0  0
  2 15  1  0  0  0  0
 15 16  2  0  0  0  0
 16 17  1  0  0  0  0
 17 18  2  0  0  0  0
 18 19  1  0  0  0  0
 15 19  1  0  0  0  0
  1 20  1  0  0  0  0
  1 21  1  0  0  0  0
  1 22  1  0  0  0  0
  4 23  1  0  0  0  0
  7 24  1  0  0  0  0
  8 25  1  0  0  0  0
 10 26  1  0  0  0  0
 11 27  1  0  0  0  0
 12 28  1  0  0  0  0
 13 29  1  0  0  0  0
 14 30  1  0  0  0  0
 16 31  1  0  0  0  0
 17 32  1  0  0  0  0
 18 33  1  0  0  0  0
M  END
> <UNIQUE_SMILES>
C\C(=N/NC(=O)\C=C\c1ccccc1)c2sccc2

> <USER_SUPPLIED_SMILES>
C\C(=N/NC(=O)\C=C\c1ccccc1)c1cccs1

$$$$
C14H13N3O
APtclcactv08192311302D 0   0.00000     0.00000    19
 
 31 32  0  0  0  0  0  0  0  0999 V2000
    2.8660    0.4806    0.0000 O   0  0  0  0  0  0  0  0  0  0  0  0
    3.7321   -0.0194    0.0000 C   0  0  0  0  0  0  0  0  0  0  0  0
    4.5981    0.4806    0.0000 N   0  0  0  0  0  0  0  0  0  0  0  0
    4.5981    1.4806    0.0000 N   0  0  0  0  0  0  0  0  0  0  0  0
    5.4641    1.9806    0.0000 C   0  0  0  0  0  0  0  0  0  0  0  0
    5.4641    2.9806    0.0000 C   0  0  0  0  0  0  0  0  0  0  0  0
    6.2731    3.5684    0.0000 C   0  0  0  0  0  0  0  0  0  0  0  0
    5.9641    4.5194    0.0000 C   0  0  0  0  0  0  0  0  0  0  0  0
    4.9641    4.5194    0.0000 C   0  0  0  0  0  0  0  0  0  0  0  0
    4.6551    3.5684    0.0000 N   0  0  0  0  0  0  0  0  0  0  0  0
    4.0654    3.3768    0.0000 H   0  0  0  0  0  0  0  0  0  0  0  0
    3.7321   -1.0194    0.0000 C   0  0  0  0  0  0  0  0  0  0  0  0
    2.8660   -1.5194    0.0000 C   0  0  0  0  0  0  0  0  0  0  0  0
    2.8660   -2.5194    0.0000 C   0  0  0  0  0  0  0  0  0  0  0  0
    2.0000   -3.0194    0.0000 C   0  0  0  0  0  0  0  0  0  0  0  0
    2.0000   -4.0194    0.0000 C   0  0  0  0  0  0  0  0  0  0  0  0
    2.8660   -4.5194    0.0000 C   0  0  0  0  0  0  0  0  0  0  0  0
    3.7321   -4.0194    0.0000 C   0  0  0  0  0  0  0  0  0  0  0  0
    3.7321   -3.0194    0.0000 C   0  0  0  0  0  0  0  0  0  0  0  0
    5.1350    0.1706    0.0000 H   0  0  0  0  0  0  0  0  0  0  0  0
    6.0010    1.6706    0.0000 H   0  0  0  0  0  0  0  0  0  0  0  0
    6.8628    3.3768    0.0000 H   0  0  0  0  0  0  0  0  0  0  0  0
    6.3285    5.0210    0.0000 H   0  0  0  0  0  0  0  0  0  0  0  0
    4.5997    5.0210    0.0000 H   0  0  0  0  0  0  0  0  0  0  0  0
    4.2690   -1.3294    0.0000 H   0  0  0  0  0  0  0  0  0  0  0  0
    2.3291   -1.2094    0.0000 H   0  0  0  0  0  0  0  0  0  0  0  0
    1.4631   -2.7094    0.0000 H   0  0  0  0  0  0  0  0  0  0  0  0
    1.4631   -4.3294    0.0000 H   0  0  0  0  0  0  0  0  0  0  0  0
    2.8660   -5.1394    0.0000 H   0  0  0  0  0  0  0  0  0  0  0  0
    4.2690   -4.3294    0.0000 H   0  0  0  0  0  0  0  0  0  0  0  0
    4.2690   -2.7094    0.0000 H   0  0  0  0  0  0  0  0  0  0  0  0
  1  2  2  0  0  0  0
  2  3  1  0  0  0  0
  3  4  1  0  0  0  0
  4  5  2  0  0  0  0
  5  6  1  0  0  0  0
  6  7  2  0  0  0  0
  7  8  1  0  0  0  0
  8  9  2  0  0  0  0
  9 10  1  0  0  0  0
 10 11  1  0  0  0  0
  6 10  1  0  0  0  0
  2 12  1  0  0  0  0
 12 13  2  0  0  0  0
 13 14  1  0  0  0  0
 14 15  1  0  0  0  0
 15 16  2  0  0  0  0
 16 17  1  0  0  0  0
 17 18  2  0  0  0  0
 18 19  1  0  0  0  0
 14 19  2  0  0  0  0
  3 20  1  0  0  0  0
  5 21  1  0  0  0  0
  7 22  1  0  0  0  0
  8 23  1  0  0  0  0
  9 24  1  0  0  0  0
 12 25  1  0  0  0  0
 13 26  1  0  0  0  0
 15 27  1  0  0  0  0
 16 28  1  0  0  0  0
 17 29  1  0  0  0  0
 18 30  1  0  0  0  0
 19 31  1  0  0  0  0
M  END
> <UNIQUE_SMILES>
O=C(N\N=C\c1[nH]ccc1)\C=C\c2ccccc2

> <USER_SUPPLIED_SMILES>
O=C(N\N=C\c1ccc[nH]1)\C=C\c1ccccc1

$$$$
C16H15N3O
APtclcactv08192311302D 0   0.00000     0.00000    20
 
 35 36  0  0  0  0  0  0  0  0999 V2000
    6.3301    1.2500    0.0000 C   0  0  0  0  0  0  0  0  0  0  0  0
    5.4641    1.7500    0.0000 C   0  0  0  0  0  0  0  0  0  0  0  0
    4.5981    1.2500    0.0000 N   0  0  0  0  0  0  0  0  0  0  0  0
    4.5981    0.2500    0.0000 N   0  0  0  0  0  0  0  0  0  0  0  0
    3.7321   -0.2500    0.0000 C   0  0  0  0  0  0  0  0  0  0  0  0
    2.8660    0.2500    0.0000 O   0  0  0  0  0  0  0  0  0  0  0  0
    3.7321   -1.2500    0.0000 C   0  0  0  0  0  0  0  0  0  0  0  0
    2.8660   -1.7500    0.0000 C   0  0  0  0  0  0  0  0  0  0  0  0
    2.8660   -2.7500    0.0000 C   0  0  0  0  0  0  0  0  0  0  0  0
    2.0000   -3.2500    0.0000 C   0  0  0  0  0  0  0  0  0  0  0  0
    2.0000   -4.2500    0.0000 C   0  0  0  0  0  0  0  0  0  0  0  0
    2.8660   -4.7500    0.0000 C   0  0  0  0  0  0  0  0  0  0  0  0
    3.7321   -4.2500    0.0000 C   0  0  0  0  0  0  0  0  0  0  0  0
    3.7321   -3.2500    0.0000 C   0  0  0  0  0  0  0  0  0  0  0  0
    5.4641    2.7500    0.0000 C   0  0  0  0  0  0  0  0  0  0  0  0
    6.3301    3.2500    0.0000 C   0  0  0  0  0  0  0  0  0  0  0  0
    6.3301    4.2500    0.0000 C   0  0  0  0  0  0  0  0  0  0  0  0
    5.4641    4.7500    0.0000 N   0  0  0  0  0  0  0  0  0  0  0  0
    4.5981    4.2500    0.0000 C   0  0  0  0  0  0  0  0  0  0  0  0
    4.5981    3.2500    0.0000 C   0  0  0  0  0  0  0  0  0  0  0  0
    6.0201    0.7131    0.0000 H   0  0  0  0  0  0  0  0  0  0  0  0
    6.8671    0.9400    0.0000 H   0  0  0  0  0  0  0  0  0  0  0  0
    6.6401    1.7869    0.0000 H   0  0  0  0  0  0  0  0  0  0  0  0
    5.1350   -0.0600    0.0000 H   0  0  0  0  0  0  0  0  0  0  0  0
    4.2690   -1.5600    0.0000 H   0  0  0  0  0  0  0  0  0  0  0  0
    2.3291   -1.4400    0.0000 H   0  0  0  0  0  0  0  0  0  0  0  0
    1.4631   -2.9400    0.0000 H   0  0  0  0  0  0  0  0  0  0  0  0
    1.4631   -4.5600    0.0000 H   0  0  0  0  0  0  0  0  0  0  0  0
    2.8660   -5.3700    0.0000 H   0  0  0  0  0  0  0  0  0  0  0  0
    4.2690   -4.5600    0.0000 H   0  0  0  0  0  0  0  0  0  0  0  0
    4.2690   -2.9400    0.0000 H   0  0  0  0  0  0  0  0  0  0  0  0
    6.8671    2.9400    0.0000 H   0  0  0  0  0  0  0  0  0  0  0  0
    6.8671    4.5600    0.0000 H   0  0  0  0  0  0  0  0  0  0  0  0
    4.0611    4.5600    0.0000 H   0  0  0  0  0  0  0  0  0  0  0  0
    4.0611    2.9400    0.0000 H   0  0  0  0  0  0  0  0  0  0  0  0
  1  2  1  0  0  0  0
  2  3  2  0  0  0  0
  3  4  1  0  0  0  0
  4  5  1  0  0  0  0
  5  6  2  0  0  0  0
  5  7  1  0  0  0  0
  7  8  2  0  0  0  0
  8  9  1  0  0  0  0
  9 10  1  0  0  0  0
 10 11  2  0  0  0  0
 11 12  1  0  0  0  0
 12 13  2  0  0  0  0
 13 14  1  0  0  0  0
  9 14  2  0  0  0  0
  2 15  1  0  0  0  0
 15 16  1  0  0  0  0
 16 17  2  0  0  0  0
 17 18  1  0  0  0  0
 18 19  2  0  0  0  0
 19 20  1  0  0  0  0
 15 20  2  0  0  0  0
  1 21  1  0  0  0  0
  1 22  1  0  0  0  0
  1 23  1  0  0  0  0
  4 24  1  0  0  0  0
  7 25  1  0  0  0  0
  8 26  1  0  0  0  0
 10 27  1  0  0  0  0
 11 28  1  0  0  0  0
 12 29  1  0  0  0  0
 13 30  1  0  0  0  0
 14 31  1  0  0  0  0
 16 32  1  0  0  0  0
 17 33  1  0  0  0  0
 19 34  1  0  0  0  0
 20 35  1  0  0  0  0
M  END
> <UNIQUE_SMILES>
C\C(=N/NC(=O)\C=C\c1ccccc1)c2ccncc2

> <USER_SUPPLIED_SMILES>
C\C(=N/NC(=O)\C=C\c1ccccc1)c1ccncc1

$$$$
C13H12N4O
APtclcactv08192311302D 0   0.00000     0.00000    21
 
 30 31  0  0  0  0  0  0  0  0999 V2000
    2.8660    0.4806    0.0000 O   0  0  0  0  0  0  0  0  0  0  0  0
    3.7321   -0.0194    0.0000 C   0  0  0  0  0  0  0  0  0  0  0  0
    4.5981    0.4806    0.0000 N   0  0  0  0  0  0  0  0  0  0  0  0
    4.5981    1.4806    0.0000 N   0  0  0  0  0  0  0  0  0  0  0  0
    5.4641    1.9806    0.0000 C   0  0  0  0  0  0  0  0  0  0  0  0
    5.4641    2.9806    0.0000 C   0  0  0  0  0  0  0  0  0  0  0  0
    6.2731    3.5684    0.0000 C   0  0  0  0  0  0  0  0  0  0  0  0
    5.9641    4.5194    0.0000 N   0  0  0  0  0  0  0  0  0  0  0  0
    4.9641    4.5194    0.0000 C   0  0  0  0  0  0  0  0  0  0  0  0
    4.6551    3.5684    0.0000 N   0  0  0  0  0  0  0  0  0  0  0  0
    4.0654    3.3768    0.0000 H   0  0  0  0  0  0  0  0  0  0  0  0
    3.7321   -1.0194    0.0000 C   0  0  0  0  0  0  0  0  0  0  0  0
    2.8660   -1.5194    0.0000 C   0  0  0  0  0  0  0  0  0  0  0  0
    2.8660   -2.5194    0.0000 C   0  0  0  0  0  0  0  0  0  0  0  0
    2.0000   -3.0194    0.0000 C   0  0  0  0  0  0  0  0  0  0  0  0
    2.0000   -4.0194    0.0000 C   0  0  0  0  0  0  0  0  0  0  0  0
    2.8660   -4.5194    0.0000 C   0  0  0  0  0  0  0  0  0  0  0  0
    3.7321   -4.0194    0.0000 C   0  0  0  0  0  0  0  0  0  0  0  0
    3.7321   -3.0194    0.0000 C   0  0  0  0  0  0  0  0  0  0  0  0
    5.1350    0.1706    0.0000 H   0  0  0  0  0  0  0  0  0  0  0  0
    6.0010    1.6706    0.0000 H   0  0  0  0  0  0  0  0  0  0  0  0
    6.8628    3.3768    0.0000 H   0  0  0  0  0  0  0  0  0  0  0  0
    4.5997    5.0210    0.0000 H   0  0  0  0  0  0  0  0  0  0  0  0
    4.2690   -1.3294    0.0000 H   0  0  0  0  0  0  0  0  0  0  0  0
    2.3291   -1.2094    0.0000 H   0  0  0  0  0  0  0  0  0  0  0  0
    1.4631   -2.7094    0.0000 H   0  0  0  0  0  0  0  0  0  0  0  0
    1.4631   -4.3294    0.0000 H   0  0  0  0  0  0  0  0  0  0  0  0
    2.8660   -5.1394    0.0000 H   0  0  0  0  0  0  0  0  0  0  0  0
    4.2690   -4.3294    0.0000 H   0  0  0  0  0  0  0  0  0  0  0  0
    4.2690   -2.7094    0.0000 H   0  0  0  0  0  0  0  0  0  0  0  0
  1  2  2  0  0  0  0
  2  3  1  0  0  0  0
  3  4  1  0  0  0  0
  4  5  2  0  0  0  0
  5  6  1  0  0  0  0
  6  7  2  0  0  0  0
  7  8  1  0  0  0  0
  8  9  2  0  0  0  0
  9 10  1  0  0  0  0
 10 11  1  0  0  0  0
  6 10  1  0  0  0  0
  2 12  1  0  0  0  0
 12 13  2  0  0  0  0
 13 14  1  0  0  0  0
 14 15  1  0  0  0  0
 15 16  2  0  0  0  0
 16 17  1  0  0  0  0
 17 18  2  0  0  0  0
 18 19  1  0  0  0  0
 14 19  2  0  0  0  0
  3 20  1  0  0  0  0
  5 21  1  0  0  0  0
  7 22  1  0  0  0  0
  9 23  1  0  0  0  0
 12 24  1  0  0  0  0
 13 25  1  0  0  0  0
 15 26  1  0  0  0  0
 16 27  1  0  0  0  0
 17 28  1  0  0  0  0
 18 29  1  0  0  0  0
 19 30  1  0  0  0  0
M  END
> <UNIQUE_SMILES>
O=C(N\N=C\c1[nH]cnc1)\C=C\c2ccccc2

> <USER_SUPPLIED_SMILES>
O=C(N\N=C\c1cnc[nH]1)\C=C\c1ccccc1

$$$$
C18H15N3O
APtclcactv08192311302D 0   0.00000     0.00000    22
 
 37 39  0  0  0  0  0  0  0  0999 V2000
    7.9245   -0.4923    0.0000 O   0  0  0  0  0  0  0  0  0  0  0  0
    7.2566    0.2520    0.0000 C   0  0  0  0  0  0  0  0  0  0  0  0
    6.2781    0.0458    0.0000 N   0  0  0  0  0  0  0  0  0  0  0  0
    5.9674   -0.9048    0.0000 N   0  0  0  0  0  0  0  0  0  0  0  0
    4.9889   -1.1110    0.0000 C   0  0  0  0  0  0  0  0  0  0  0  0
    4.6783   -2.0615    0.0000 C   0  0  0  0  0  0  0  0  0  0  0  0
    5.2619   -2.8662    0.0000 C   0  0  0  0  0  0  0  0  0  0  0  0
    4.6783   -3.6710    0.0000 N   0  0  0  0  0  0  0  0  0  0  0  0
    4.8709   -4.2603    0.0000 H   0  0  0  0  0  0  0  0  0  0  0  0
    3.7321   -3.3662    0.0000 C   0  0  0  0  0  0  0  0  0  0  0  0
    2.8660   -3.8662    0.0000 C   0  0  0  0  0  0  0  0  0  0  0  0
    2.0000   -3.3662    0.0000 C   0  0  0  0  0  0  0  0  0  0  0  0
    2.0000   -2.3662    0.0000 C   0  0  0  0  0  0  0  0  0  0  0  0
    2.8660   -1.8662    0.0000 C   0  0  0  0  0  0  0  0  0  0  0  0
    3.7321   -2.3662    0.0000 C   0  0  0  0  0  0  0  0  0  0  0  0
    7.5673    1.2025    0.0000 C   0  0  0  0  0  0  0  0  0  0  0  0
    8.5458    1.4087    0.0000 C   0  0  0  0  0  0  0  0  0  0  0  0
    8.8564    2.3592    0.0000 C   0  0  0  0  0  0  0  0  0  0  0  0
    9.8349    2.5655    0.0000 C   0  0  0  0  0  0  0  0  0  0  0  0
   10.1456    3.5160    0.0000 C   0  0  0  0  0  0  0  0  0  0  0  0
    9.4778    4.2603    0.0000 C   0  0  0  0  0  0  0  0  0  0  0  0
    8.4993    4.0541    0.0000 C   0  0  0  0  0  0  0  0  0  0  0  0
    8.1886    3.1035    0.0000 C   0  0  0  0  0  0  0  0  0  0  0  0
    5.8640    0.5072    0.0000 H   0  0  0  0  0  0  0  0  0  0  0  0
    4.5749   -0.6495    0.0000 H   0  0  0  0  0  0  0  0  0  0  0  0
    5.8819   -2.8662    0.0000 H   0  0  0  0  0  0  0  0  0  0  0  0
    2.8660   -4.4862    0.0000 H   0  0  0  0  0  0  0  0  0  0  0  0
    1.4631   -3.6762    0.0000 H   0  0  0  0  0  0  0  0  0  0  0  0
    1.4631   -2.0562    0.0000 H   0  0  0  0  0  0  0  0  0  0  0  0
    2.8660   -1.2462    0.0000 H   0  0  0  0  0  0  0  0  0  0  0  0
    7.1532    1.6640    0.0000 H   0  0  0  0  0  0  0  0  0  0  0  0
    8.9598    0.9473    0.0000 H   0  0  0  0  0  0  0  0  0  0  0  0
   10.2490    2.1040    0.0000 H   0  0  0  0  0  0  0  0  0  0  0  0
   10.7523    3.6438    0.0000 H   0  0  0  0  0  0  0  0  0  0  0  0
    9.6704    4.8496    0.0000 H   0  0  0  0  0  0  0  0  0  0  0  0
    8.0852    4.5155    0.0000 H   0  0  0  0  0  0  0  0  0  0  0  0
    7.5819    2.9757    0.0000 H   0  0  0  0  0  0  0  0  0  0  0  0
  1  2  2  0  0  0  0
  2  3  1  0  0  0  0
  3  4  1  0  0  0  0
  4  5  2  0  0  0  0
  5  6  1  0  0  0  0
  6  7  2  0  0  0  0
  7  8  1  0  0  0  0
  8  9  1  0  0  0  0
  8 10  1  0  0  0  0
 10 11  1  0  0  0  0
 11 12  2  0  0  0  0
 12 13  1  0  0  0  0
 13 14  2  0  0  0  0
 14 15  1  0  0  0  0
  6 15  1  0  0  0  0
 10 15  2  0  0  0  0
  2 16  1  0  0  0  0
 16 17  2  0  0  0  0
 17 18  1  0  0  0  0
 18 19  1  0  0  0  0
 19 20  2  0  0  0  0
 20 21  1  0  0  0  0
 21 22  2  0  0  0  0
 22 23  1  0  0  0  0
 18 23  2  0  0  0  0
  3 24  1  0  0  0  0
  5 25  1  0  0  0  0
  7 26  1  0  0  0  0
 11 27  1  0  0  0  0
 12 28  1  0  0  0  0
 13 29  1  0  0  0  0
 14 30  1  0  0  0  0
 16 31  1  0  0  0  0
 17 32  1  0  0  0  0
 19 33  1  0  0  0  0
 20 34  1  0  0  0  0
 21 35  1  0  0  0  0
 22 36  1  0  0  0  0
 23 37  1  0  0  0  0
M  END
> <UNIQUE_SMILES>
O=C(N\N=C\c1c[nH]c2ccccc12)\C=C\c3ccccc3

> <USER_SUPPLIED_SMILES>
O=C(N\N=C\c1c[nH]c2ccccc12)\C=C\c1ccccc1

$$$$
C16H13N3O3
APtclcactv08192311302D 0   0.00000     0.00000    23
 
 35 36  0  0  0  0  0  0  0  0999 V2000
    2.0000   -5.5000    0.0000 O   0  5  0  0  0  0  0  0  0  0  0  0
    2.8660   -5.0000    0.0000 N   0  3  0  0  0  0  0  0  0  0  0  0
    3.7321   -5.5000    0.0000 O   0  0  0  0  0  0  0  0  0  0  0  0
    2.8660   -4.0000    0.0000 C   0  0  0  0  0  0  0  0  0  0  0  0
    3.7321   -3.5000    0.0000 C   0  0  0  0  0  0  0  0  0  0  0  0
    3.7321   -2.5000    0.0000 C   0  0  0  0  0  0  0  0  0  0  0  0
    2.8660   -2.0000    0.0000 C   0  0  0  0  0  0  0  0  0  0  0  0
    2.8660   -1.0000    0.0000 C   0  0  0  0  0  0  0  0  0  0  0  0
    3.7321   -0.5000    0.0000 N   0  0  0  0  0  0  0  0  0  0  0  0
    3.7321    0.5000    0.0000 N   0  0  0  0  0  0  0  0  0  0  0  0
    4.5981    1.0000    0.0000 C   0  0  0  0  0  0  0  0  0  0  0  0
    5.4641    0.5000    0.0000 O   0  0  0  0  0  0  0  0  0  0  0  0
    4.5981    2.0000    0.0000 C   0  0  0  0  0  0  0  0  0  0  0  0
    5.4641    2.5000    0.0000 C   0  0  0  0  0  0  0  0  0  0  0  0
    5.4641    3.5000    0.0000 C   0  0  0  0  0  0  0  0  0  0  0  0
    6.3301    4.0000    0.0000 C   0  0  0  0  0  0  0  0  0  0  0  0
    6.3301    5.0000    0.0000 C   0  0  0  0  0  0  0  0  0  0  0  0
    5.4641    5.5000    0.0000 C   0  0  0  0  0  0  0  0  0  0  0  0
    4.5981    5.0000    0.0000 C   0  0  0  0  0  0  0  0  0  0  0  0
    4.5981    4.0000    0.0000 C   0  0  0  0  0  0  0  0  0  0  0  0
    2.0000   -2.5000    0.0000 C   0  0  0  0  0  0  0  0  0  0  0  0
    2.0000   -3.5000    0.0000 C   0  0  0  0  0  0  0  0  0  0  0  0
    4.2690   -3.8100    0.0000 H   0  0  0  0  0  0  0  0  0  0  0  0
    4.2690   -2.1900    0.0000 H   0  0  0  0  0  0  0  0  0  0  0  0
    2.3291   -0.6900    0.0000 H   0  0  0  0  0  0  0  0  0  0  0  0
    3.1951    0.8100    0.0000 H   0  0  0  0  0  0  0  0  0  0  0  0
    4.0611    2.3100    0.0000 H   0  0  0  0  0  0  0  0  0  0  0  0
    6.0010    2.1900    0.0000 H   0  0  0  0  0  0  0  0  0  0  0  0
    6.8671    3.6900    0.0000 H   0  0  0  0  0  0  0  0  0  0  0  0
    6.8671    5.3100    0.0000 H   0  0  0  0  0  0  0  0  0  0  0  0
    5.4641    6.1200    0.0000 H   0  0  0  0  0  0  0  0  0  0  0  0
    4.0611    5.3100    0.0000 H   0  0  0  0  0  0  0  0  0  0  0  0
    4.0611    3.6900    0.0000 H   0  0  0  0  0  0  0  0  0  0  0  0
    1.4631   -2.1900    0.0000 H   0  0  0  0  0  0  0  0  0  0  0  0
    1.4631   -3.8100    0.0000 H   0  0  0  0  0  0  0  0  0  0  0  0
  1  2  1  0  0  0  0
  2  3  2  0  0  0  0
  2  4  1  0  0  0  0
  4  5  1  0  0  0  0
  5  6  2  0  0  0  0
  6  7  1  0  0  0  0
  7  8  1  0  0  0  0
  8  9  2  0  0  0  0
  9 10  1  0  0  0  0
 10 11  1  0  0  0  0
 11 12  2  0  0  0  0
 11 13  1  0  0  0  0
 13 14  2  0  0  0  0
 14 15  1  0  0  0  0
 15 16  1  0  0  0  0
 16 17  2  0  0  0  0
 17 18  1  0  0  0  0
 18 19  2  0  0  0  0
 19 20  1  0  0  0  0
 15 20  2  0  0  0  0
  7 21  2  0  0  0  0
 21 22  1  0  0  0  0
  4 22  2  0  0  0  0
  5 23  1  0  0  0  0
  6 24  1  0  0  0  0
  8 25  1  0  0  0  0
 10 26  1  0  0  0  0
 13 27  1  0  0  0  0
 14 28  1  0  0  0  0
 16 29  1  0  0  0  0
 17 30  1  0  0  0  0
 18 31  1  0  0  0  0
 19 32  1  0  0  0  0
 20 33  1  0  0  0  0
 21 34  1  0  0  0  0
 22 35  1  0  0  0  0
M  CHG  2   1  -1   2   1
M  END
> <UNIQUE_SMILES>
[O-][N+](=O)c1ccc(cc1)\C=N\NC(=O)\C=C\c2ccccc2

> <USER_SUPPLIED_SMILES>
[O-][N+](=O)c1ccc(\C=N\NC(=O)\C=C\c2ccccc2)cc1

$$$$
C18H19N3O
APtclcactv08192311302D 0   0.00000     0.00000    24
 
 41 42  0  0  0  0  0  0  0  0999 V2000
    2.0000   -5.5000    0.0000 C   0  0  0  0  0  0  0  0  0  0  0  0
    2.8660   -5.0000    0.0000 N   0  0  0  0  0  0  0  0  0  0  0  0
    3.7321   -5.5000    0.0000 C   0  0  0  0  0  0  0  0  0  0  0  0
    2.8660   -4.0000    0.0000 C   0  0  0  0  0  0  0  0  0  0  0  0
    3.7321   -3.5000    0.0000 C   0  0  0  0  0  0  0  0  0  0  0  0
    3.7321   -2.5000    0.0000 C   0  0  0  0  0  0  0  0  0  0  0  0
    2.8660   -2.0000    0.0000 C   0  0  0  0  0  0  0  0  0  0  0  0
    2.8660   -1.0000    0.0000 C   0  0  0  0  0  0  0  0  0  0  0  0
    3.7321   -0.5000    0.0000 N   0  0  0  0  0  0  0  0  0  0  0  0
    3.7321    0.5000    0.0000 N   0  0  0  0  0  0  0  0  0  0  0  0
    4.5981    1.0000    0.0000 C   0  0  0  0  0  0  0  0  0  0  0  0
    5.4641    0.5000    0.0000 O   0  0  0  0  0  0  0  0  0  0  0  0
    4.5981    2.0000    0.0000 C   0  0  0  0  0  0  0  0  0  0  0  0
    5.4641    2.5000    0.0000 C   0  0  0  0  0  0  0  0  0  0  0  0
    5.4641    3.5000    0.0000 C   0  0  0  0  0  0  0  0  0  0  0  0
    6.3301    4.0000    0.0000 C   0  0  0  0  0  0  0  0  0  0  0  0
    6.3301    5.0000    0.0000 C   0  0  0  0  0  0  0  0  0  0  0  0
    5.4641    5.5000    0.0000 C   0  0  0  0  0  0  0  0  0  0  0  0
    4.5981    5.0000    0.0000 C   0  0  0  0  0  0  0  0  0  0  0  0
    4.5981    4.0000    0.0000 C   0  0  0  0  0  0  0  0  0  0  0  0
    2.0000   -2.5000    0.0000 C   0  0  0  0  0  0  0  0  0  0  0  0
    2.0000   -3.5000    0.0000 C   0  0  0  0  0  0  0  0  0  0  0  0
    1.6900   -4.9631    0.0000 H   0  0  0  0  0  0  0  0  0  0  0  0
    1.4631   -5.8100    0.0000 H   0  0  0  0  0  0  0  0  0  0  0  0
    2.3100   -6.0369    0.0000 H   0  0  0  0  0  0  0  0  0  0  0  0
    3.4221   -6.0369    0.0000 H   0  0  0  0  0  0  0  0  0  0  0  0
    4.2690   -5.8100    0.0000 H   0  0  0  0  0  0  0  0  0  0  0  0
    4.0421   -4.9631    0.0000 H   0  0  0  0  0  0  0  0  0  0  0  0
    4.2690   -3.8100    0.0000 H   0  0  0  0  0  0  0  0  0  0  0  0
    4.2690   -2.1900    0.0000 H   0  0  0  0  0  0  0  0  0  0  0  0
    2.3291   -0.6900    0.0000 H   0  0  0  0  0  0  0  0  0  0  0  0
    3.1951    0.8100    0.0000 H   0  0  0  0  0  0  0  0  0  0  0  0
    4.0611    2.3100    0.0000 H   0  0  0  0  0  0  0  0  0  0  0  0
    6.0010    2.1900    0.0000 H   0  0  0  0  0  0  0  0  0  0  0  0
    6.8671    3.6900    0.0000 H   0  0  0  0  0  0  0  0  0  0  0  0
    6.8671    5.3100    0.0000 H   0  0  0  0  0  0  0  0  0  0  0  0
    5.4641    6.1200    0.0000 H   0  0  0  0  0  0  0  0  0  0  0  0
    4.0611    5.3100    0.0000 H   0  0  0  0  0  0  0  0  0  0  0  0
    4.0611    3.6900    0.0000 H   0  0  0  0  0  0  0  0  0  0  0  0
    1.4631   -2.1900    0.0000 H   0  0  0  0  0  0  0  0  0  0  0  0
    1.4631   -3.8100    0.0000 H   0  0  0  0  0  0  0  0  0  0  0  0
  1  2  1  0  0  0  0
  2  3  1  0  0  0  0
  2  4  1  0  0  0  0
  4  5  1  0  0  0  0
  5  6  2  0  0  0  0
  6  7  1  0  0  0  0
  7  8  1  0  0  0  0
  8  9  2  0  0  0  0
  9 10  1  0  0  0  0
 10 11  1  0  0  0  0
 11 12  2  0  0  0  0
 11 13  1  0  0  0  0
 13 14  2  0  0  0  0
 14 15  1  0  0  0  0
 15 16  1  0  0  0  0
 16 17  2  0  0  0  0
 17 18  1  0  0  0  0
 18 19  2  0  0  0  0
 19 20  1  0  0  0  0
 15 20  2  0  0  0  0
  7 21  2  0  0  0  0
 21 22  1  0  0  0  0
  4 22  2  0  0  0  0
  1 23  1  0  0  0  0
  1 24  1  0  0  0  0
  1 25  1  0  0  0  0
  3 26  1  0  0  0  0
  3 27  1  0  0  0  0
  3 28  1  0  0  0  0
  5 29  1  0  0  0  0
  6 30  1  0  0  0  0
  8 31  1  0  0  0  0
 10 32  1  0  0  0  0
 13 33  1  0  0  0  0
 14 34  1  0  0  0  0
 16 35  1  0  0  0  0
 17 36  1  0  0  0  0
 18 37  1  0  0  0  0
 19 38  1  0  0  0  0
 20 39  1  0  0  0  0
 21 40  1  0  0  0  0
 22 41  1  0  0  0  0
M  END
> <UNIQUE_SMILES>
CN(C)c1ccc(cc1)\C=N\NC(=O)\C=C\c2ccccc2

> <USER_SUPPLIED_SMILES>
CN(C)c1ccc(\C=N\NC(=O)\C=C\c2ccccc2)cc1

$$$$
C17H14N2O3
APtclcactv08192311302D 0   0.00000     0.00000    25
 
 36 38  0  0  0  0  0  0  0  0999 V2000
    6.3301   -1.2500    0.0000 O   0  0  0  0  0  0  0  0  0  0  0  0
    6.3301   -0.2500    0.0000 C   0  0  0  0  0  0  0  0  0  0  0  0
    7.1962    0.2500    0.0000 N   0  0  0  0  0  0  0  0  0  0  0  0
    8.0622   -0.2500    0.0000 N   0  0  0  0  0  0  0  0  0  0  0  0
    8.9282    0.2500    0.0000 C   0  0  0  0  0  0  0  0  0  0  0  0
    9.7942   -0.2500    0.0000 C   0  0  0  0  0  0  0  0  0  0  0  0
    9.7942   -1.2500    0.0000 C   0  0  0  0  0  0  0  0  0  0  0  0
   10.6603   -1.7500    0.0000 C   0  0  0  0  0  0  0  0  0  0  0  0
   11.5263   -1.2500    0.0000 C   0  0  0  0  0  0  0  0  0  0  0  0
   12.4725   -1.5547    0.0000 O   0  0  0  0  0  0  0  0  0  0  0  0
   13.0561   -0.7500    0.0000 C   0  0  0  0  0  0  0  0  0  0  0  0
   12.4725    0.0547    0.0000 O   0  0  0  0  0  0  0  0  0  0  0  0
   11.5263   -0.2500    0.0000 C   0  0  0  0  0  0  0  0  0  0  0  0
   10.6603    0.2500    0.0000 C   0  0  0  0  0  0  0  0  0  0  0  0
    5.4641    0.2500    0.0000 C   0  0  0  0  0  0  0  0  0  0  0  0
    4.5981   -0.2500    0.0000 C   0  0  0  0  0  0  0  0  0  0  0  0
    3.7321    0.2500    0.0000 C   0  0  0  0  0  0  0  0  0  0  0  0
    3.7321    1.2500    0.0000 C   0  0  0  0  0  0  0  0  0  0  0  0
    2.8660    1.7500    0.0000 C   0  0  0  0  0  0  0  0  0  0  0  0
    2.0000    1.2500    0.0000 C   0  0  0  0  0  0  0  0  0  0  0  0
    2.0000    0.2500    0.0000 C   0  0  0  0  0  0  0  0  0  0  0  0
    2.8660   -0.2500    0.0000 C   0  0  0  0  0  0  0  0  0  0  0  0
    7.1962    0.8700    0.0000 H   0  0  0  0  0  0  0  0  0  0  0  0
    8.9282    0.8700    0.0000 H   0  0  0  0  0  0  0  0  0  0  0  0
    9.2573   -1.5600    0.0000 H   0  0  0  0  0  0  0  0  0  0  0  0
   10.6603   -2.3700    0.0000 H   0  0  0  0  0  0  0  0  0  0  0  0
   13.5170   -1.1647    0.0000 H   0  0  0  0  0  0  0  0  0  0  0  0
   13.5170   -0.3353    0.0000 H   0  0  0  0  0  0  0  0  0  0  0  0
   10.6603    0.8700    0.0000 H   0  0  0  0  0  0  0  0  0  0  0  0
    5.4641    0.8700    0.0000 H   0  0  0  0  0  0  0  0  0  0  0  0
    4.5981   -0.8700    0.0000 H   0  0  0  0  0  0  0  0  0  0  0  0
    4.2690    1.5600    0.0000 H   0  0  0  0  0  0  0  0  0  0  0  0
    2.8660    2.3700    0.0000 H   0  0  0  0  0  0  0  0  0  0  0  0
    1.4631    1.5600    0.0000 H   0  0  0  0  0  0  0  0  0  0  0  0
    1.4631   -0.0600    0.0000 H   0  0  0  0  0  0  0  0  0  0  0  0
    2.8660   -0.8700    0.0000 H   0  0  0  0  0  0  0  0  0  0  0  0
  1  2  2  0  0  0  0
  2  3  1  0  0  0  0
  3  4  1  0  0  0  0
  4  5  2  0  0  0  0
  5  6  1  0  0  0  0
  6  7  1  0  0  0  0
  7  8  2  0  0  0  0
  8  9  1  0  0  0  0
  9 10  1  0  0  0  0
 10 11  1  0  0  0  0
 11 12  1  0  0  0  0
 12 13  1  0  0  0  0
  9 13  2  0  0  0  0
 13 14  1  0  0  0  0
  6 14  2  0  0  0  0
  2 15  1  0  0  0  0
 15 16  2  0  0  0  0
 16 17  1  0  0  0  0
 17 18  1  0  0  0  0
 18 19  2  0  0  0  0
 19 20  1  0  0  0  0
 20 21  2  0  0  0  0
 21 22  1  0  0  0  0
 17 22  2  0  0  0  0
  3 23  1  0  0  0  0
  5 24  1  0  0  0  0
  7 25  1  0  0  0  0
  8 26  1  0  0  0  0
 11 27  1  0  0  0  0
 11 28  1  0  0  0  0
 14 29  1  0  0  0  0
 15 30  1  0  0  0  0
 16 31  1  0  0  0  0
 18 32  1  0  0  0  0
 19 33  1  0  0  0  0
 20 34  1  0  0  0  0
 21 35  1  0  0  0  0
 22 36  1  0  0  0  0
M  END
> <UNIQUE_SMILES>
O=C(N\N=C\c1ccc2OCOc2c1)\C=C\c3ccccc3

> <USER_SUPPLIED_SMILES>
O=C(N\N=C\c1ccc2OCOc2c1)\C=C\c1ccccc1

$$$$
