1
  -MTS-   04202218243D 0   0.00000     0.00000     0

 61 63  0  0  0  0  0  0  0  0999 V2000
    3.7570   14.7060    7.1700 O   0  0  0  0  0  0  0  0  0  0  0  0
    3.2330   13.6210    7.2560 C   0  0  0  0  0  0  0  0  0  0  0  0
    3.7400   12.6940    8.0840 O   0  0  0  0  0  0  0  0  0  0  0  0
    5.1560   12.7030    8.4030 C   0  0  0  0  0  0  0  0  0  0  0  0
    5.3350   12.8540    9.8920 C   0  0  0  0  0  0  0  0  0  0  0  0
    4.5760   12.1310   10.7390 N   0  0  0  0  0  0  0  0  0  0  0  0
    4.6590   12.3550   12.1200 C   0  0  0  0  0  0  0  0  0  0  0  0
    3.5090   12.3300   12.8970 C   0  0  0  0  0  0  0  0  0  0  0  0
    3.5910   12.5510   14.2590 C   0  0  0  0  0  0  0  0  0  0  0  0
    4.8210   12.7980   14.8490 C   0  0  0  0  0  0  0  0  0  0  0  0
    4.9000   13.0150   16.1890 O   0  0  0  0  0  0  0  0  0  0  0  0
    3.6660   13.6170   16.5840 C   0  0  0  0  0  0  0  0  0  0  0  0
    5.9710   12.8230   14.0720 C   0  0  0  0  0  0  0  0  0  0  0  0
    7.5110   13.1320   14.8120 Cl  0  0  0  0  0  0  0  0  0  0  0  0
    5.8910   12.5970   12.7110 C   0  0  0  0  0  0  0  0  0  0  0  0
    6.1610   13.6280   10.3280 O   0  0  0  0  0  0  0  0  0  0  0  0
    2.0060   13.3100    6.4380 C   0  0  0  0  0  0  0  0  0  0  0  0
    2.2960   13.5820    4.9600 C   0  0  0  0  0  0  0  0  0  0  0  0
    0.9880   13.5450    4.1680 C   0  0  0  0  0  0  0  0  0  0  0  0
    1.2200   14.1260    2.7720 C   0  0  0  0  0  0  0  0  0  0  0  0
    0.5070   12.0980    4.0450 C   0  0  0  0  0  0  0  0  0  0  0  0
    1.6460   11.9000    6.6130 N   0  0  0  0  0  0  0  0  0  0  0  0
    0.4040   11.4880    6.9840 C   0  0  0  0  0  0  0  0  0  0  0  0
    0.3710   10.0120    6.7440 C   0  0  0  0  0  0  0  0  0  0  0  0
   -0.4390    9.1220    7.6550 C   0  0  0  0  0  0  0  0  0  0  0  0
   -0.2170    7.6760    7.1740 C   0  0  0  0  0  0  0  0  0  0  0  0
    1.2600    7.3000    7.1510 C   0  0  0  0  0  0  0  0  0  0  0  0
    2.0990    8.3140    6.3480 C   0  0  0  0  0  0  0  0  0  0  0  0
    1.8670    9.6610    6.9980 C   0  0  0  0  0  0  0  0  0  0  0  0
    2.5200   10.8770    6.4150 C   0  0  0  0  0  0  0  0  0  0  0  0
    3.6060   10.9360    5.8800 O   0  0  0  0  0  0  0  0  0  0  0  0
   -0.4930   12.1760    7.4220 O   0  0  0  0  0  0  0  0  0  0  0  0
    5.6080   11.7660    8.0770 H   0  0  0  0  0  0  0  0  0  0  0  0
    5.6390   13.5360    7.8930 H   0  0  0  0  0  0  0  0  0  0  0  0
    3.9730   11.4540   10.3930 H   0  0  0  0  0  0  0  0  0  0  0  0
    2.5510   12.1380   12.4380 H   0  0  0  0  0  0  0  0  0  0  0  0
    2.6960   12.5320   14.8630 H   0  0  0  0  0  0  0  0  0  0  0  0
    3.6830   13.8100   17.6560 H   0  0  0  0  0  0  0  0  0  0  0  0
    3.5320   14.5560   16.0470 H   0  0  0  0  0  0  0  0  0  0  0  0
    2.8420   12.9440   16.3490 H   0  0  0  0  0  0  0  0  0  0  0  0
    6.7860   12.6160   12.1070 H   0  0  0  0  0  0  0  0  0  0  0  0
    1.1800   13.9400    6.7680 H   0  0  0  0  0  0  0  0  0  0  0  0
    2.7570   14.5640    4.8550 H   0  0  0  0  0  0  0  0  0  0  0  0
    2.9740   12.8200    4.5770 H   0  0  0  0  0  0  0  0  0  0  0  0
    0.2330   14.1360    4.6870 H   0  0  0  0  0  0  0  0  0  0  0  0
    1.9750   13.5350    2.2540 H   0  0  0  0  0  0  0  0  0  0  0  0
    0.2880   14.0990    2.2080 H   0  0  0  0  0  0  0  0  0  0  0  0
    1.5630   15.1570    2.8600 H   0  0  0  0  0  0  0  0  0  0  0  0
    1.2950   11.4890    3.6030 H   0  0  0  0  0  0  0  0  0  0  0  0
    0.2600   11.7110    5.0340 H   0  0  0  0  0  0  0  0  0  0  0  0
   -0.3790   12.0620    3.4100 H   0  0  0  0  0  0  0  0  0  0  0  0
    0.1100    9.8130    5.7040 H   0  0  0  0  0  0  0  0  0  0  0  0
   -0.0960    9.2290    8.6840 H   0  0  0  0  0  0  0  0  0  0  0  0
   -1.4960    9.3800    7.5850 H   0  0  0  0  0  0  0  0  0  0  0  0
   -0.7460    6.9960    7.8410 H   0  0  0  0  0  0  0  0  0  0  0  0
   -0.6250    7.5710    6.1680 H   0  0  0  0  0  0  0  0  0  0  0  0
    1.6330    7.2620    8.1750 H   0  0  0  0  0  0  0  0  0  0  0  0
    1.3680    6.3140    6.6990 H   0  0  0  0  0  0  0  0  0  0  0  0
    3.1560    8.0500    6.4000 H   0  0  0  0  0  0  0  0  0  0  0  0
    1.7680    8.3370    5.3100 H   0  0  0  0  0  0  0  0  0  0  0  0
    2.0580    9.5950    8.0690 H   0  0  0  0  0  0  0  0  0  0  0  0
  1  2  2  0  0  0  0
  2  3  1  0  0  0  0
  3  4  1  0  0  0  0
  4 33  1  0  0  0  0
  4 34  1  0  0  0  0
  4  5  1  0  0  0  0
  5  6  1  0  0  0  0
  6 35  1  0  0  0  0
  6  7  1  0  0  0  0
  7  8  2  0  0  0  0
  8 36  1  0  0  0  0
  8  9  1  0  0  0  0
  9 37  1  0  0  0  0
  9 10  2  0  0  0  0
 10 11  1  0  0  0  0
 11 12  1  0  0  0  0
 12 38  1  0  0  0  0
 12 39  1  0  0  0  0
 12 40  1  0  0  0  0
 10 13  1  0  0  0  0
 13 14  1  0  0  0  0
 13 15  2  0  0  0  0
 15  7  1  0  0  0  0
 15 41  1  0  0  0  0
  5 16  2  0  0  0  0
  2 17  1  0  0  0  0
 17 42  1  0  0  0  0
 17 18  1  0  0  0  0
 18 43  1  0  0  0  0
 18 44  1  0  0  0  0
 18 19  1  0  0  0  0
 19 45  1  0  0  0  0
 19 20  1  0  0  0  0
 20 46  1  0  0  0  0
 20 47  1  0  0  0  0
 20 48  1  0  0  0  0
 19 21  1  0  0  0  0
 21 49  1  0  0  0  0
 21 50  1  0  0  0  0
 21 51  1  0  0  0  0
 17 22  1  0  0  0  0
 22 23  1  0  0  0  0
 23 24  1  0  0  0  0
 24 52  1  0  0  0  0
 24 25  1  0  0  0  0
 25 53  1  0  0  0  0
 25 54  1  0  0  0  0
 25 26  1  0  0  0  0
 26 55  1  0  0  0  0
 26 56  1  0  0  0  0
 26 27  1  0  0  0  0
 27 57  1  0  0  0  0
 27 58  1  0  0  0  0
 27 28  1  0  0  0  0
 28 59  1  0  0  0  0
 28 60  1  0  0  0  0
 28 29  1  0  0  0  0
 29 24  1  0  0  0  0
 29 61  1  0  0  0  0
 29 30  1  0  0  0  0
 30 22  1  0  0  0  0
 30 31  2  0  0  0  0
 23 32  2  0  0  0  0
M  END
>  <EXTREG>  (1)
1

>  <pIC50>  (1)
5.3768

>  <COMFA_1>  (1)
180.0000

>  <CoMFA_2__1>  (1)
5.2272

$$$$
2
  -MTS-   04202218243D 0   0.00000     0.00000     0

 49 50  0  0  0  0  0  0  0  0999 V2000
    6.3800   12.2660    9.4880 O   0  0  0  0  0  0  0  0  0  0  0  0
    5.3120   12.7550    9.7700 C   0  0  0  0  0  0  0  0  0  0  0  0
    4.2980   12.7030    8.8930 O   0  0  0  0  0  0  0  0  0  0  0  0
    4.5660   12.4600    7.4860 C   0  0  0  0  0  0  0  0  0  0  0  0
    3.5950   11.4360    6.9590 C   0  0  0  0  0  0  0  0  0  0  0  0
    2.5110   11.0980    7.6860 N   0  0  0  0  0  0  0  0  0  0  0  0
    1.6720   10.0630    7.2530 C   0  0  0  0  0  0  0  0  0  0  0  0
    2.2170    8.9140    6.6970 C   0  0  0  0  0  0  0  0  0  0  0  0
    1.3900    7.8930    6.2710 C   0  0  0  0  0  0  0  0  0  0  0  0
    0.0140    8.0160    6.3980 C   0  0  0  0  0  0  0  0  0  0  0  0
   -0.8000    7.0100    5.9790 O   0  0  0  0  0  0  0  0  0  0  0  0
   -0.1310    6.3630    4.8940 C   0  0  0  0  0  0  0  0  0  0  0  0
   -0.5320    9.1650    6.9540 C   0  0  0  0  0  0  0  0  0  0  0  0
   -2.2540    9.3170    7.1140 Cl  0  0  0  0  0  0  0  0  0  0  0  0
    0.2950   10.1840    7.3860 C   0  0  0  0  0  0  0  0  0  0  0  0
    3.7880   10.9150    5.8810 O   0  0  0  0  0  0  0  0  0  0  0  0
    5.1170   13.4180   11.1090 C   0  0  0  0  0  0  0  0  0  0  0  0
    5.1880   12.3630   12.2160 C   0  0  0  0  0  0  0  0  0  0  0  0
    4.5520   12.9180   13.4920 C   0  0  0  0  0  0  0  0  0  0  0  0
    3.1800   13.5100   13.1620 C   0  0  0  0  0  0  0  0  0  0  0  0
    4.3890   11.7910   14.5130 C   0  0  0  0  0  0  0  0  0  0  0  0
    6.1680   14.4160   11.3180 N   0  0  0  0  0  0  0  0  0  0  0  0
    5.9610   15.7340   11.4980 C   0  0  0  0  0  0  0  0  0  0  0  0
    7.2740   16.3930   11.6730 C   0  0  0  0  0  0  0  0  0  0  0  0
    8.2070   15.4290   11.5880 C   0  0  0  0  0  0  0  0  0  0  0  0
    7.4870   14.1560   11.3650 C   0  0  0  0  0  0  0  0  0  0  0  0
    7.9990   13.0630   11.2390 O   0  0  0  0  0  0  0  0  0  0  0  0
    4.8810   16.2870   11.5130 O   0  0  0  0  0  0  0  0  0  0  0  0
    4.4520   13.3900    6.9290 H   0  0  0  0  0  0  0  0  0  0  0  0
    5.5840   12.0890    7.3700 H   0  0  0  0  0  0  0  0  0  0  0  0
    2.3120   11.5720    8.5080 H   0  0  0  0  0  0  0  0  0  0  0  0
    3.2880    8.8180    6.5970 H   0  0  0  0  0  0  0  0  0  0  0  0
    1.8140    6.9990    5.8380 H   0  0  0  0  0  0  0  0  0  0  0  0
   -0.7490    5.5450    4.5230 H   0  0  0  0  0  0  0  0  0  0  0  0
    0.0400    7.0820    4.0930 H   0  0  0  0  0  0  0  0  0  0  0  0
    0.8250    5.9690    5.2390 H   0  0  0  0  0  0  0  0  0  0  0  0
   -0.1300   11.0780    7.8190 H   0  0  0  0  0  0  0  0  0  0  0  0
    4.1420   13.9050   11.1350 H   0  0  0  0  0  0  0  0  0  0  0  0
    4.6500   11.4690   11.9010 H   0  0  0  0  0  0  0  0  0  0  0  0
    6.2300   12.1100   12.4100 H   0  0  0  0  0  0  0  0  0  0  0  0
    5.1920   13.6960   13.9080 H   0  0  0  0  0  0  0  0  0  0  0  0
    2.5400   12.7320   12.7450 H   0  0  0  0  0  0  0  0  0  0  0  0
    2.7270   13.9050   14.0710 H   0  0  0  0  0  0  0  0  0  0  0  0
    3.2960   14.3130   12.4340 H   0  0  0  0  0  0  0  0  0  0  0  0
    3.8190   10.9760   14.0660 H   0  0  0  0  0  0  0  0  0  0  0  0
    5.3720   11.4260   14.8110 H   0  0  0  0  0  0  0  0  0  0  0  0
    3.8600   12.1670   15.3880 H   0  0  0  0  0  0  0  0  0  0  0  0
    7.4500   17.4460   11.8360 H   0  0  0  0  0  0  0  0  0  0  0  0
    9.2760   15.5590   11.6710 H   0  0  0  0  0  0  0  0  0  0  0  0
  1  2  2  0  0  0  0
  2  3  1  0  0  0  0
  3  4  1  0  0  0  0
  4 29  1  0  0  0  0
  4 30  1  0  0  0  0
  4  5  1  0  0  0  0
  5  6  1  0  0  0  0
  6 31  1  0  0  0  0
  6  7  1  0  0  0  0
  7  8  2  0  0  0  0
  8 32  1  0  0  0  0
  8  9  1  0  0  0  0
  9 33  1  0  0  0  0
  9 10  2  0  0  0  0
 10 11  1  0  0  0  0
 11 12  1  0  0  0  0
 12 34  1  0  0  0  0
 12 35  1  0  0  0  0
 12 36  1  0  0  0  0
 10 13  1  0  0  0  0
 13 14  1  0  0  0  0
 13 15  2  0  0  0  0
 15  7  1  0  0  0  0
 15 37  1  0  0  0  0
  5 16  2  0  0  0  0
  2 17  1  0  0  0  0
 17 38  1  0  0  0  0
 17 18  1  0  0  0  0
 18 39  1  0  0  0  0
 18 40  1  0  0  0  0
 18 19  1  0  0  0  0
 19 41  1  0  0  0  0
 19 20  1  0  0  0  0
 20 42  1  0  0  0  0
 20 43  1  0  0  0  0
 20 44  1  0  0  0  0
 19 21  1  0  0  0  0
 21 45  1  0  0  0  0
 21 46  1  0  0  0  0
 21 47  1  0  0  0  0
 17 22  1  0  0  0  0
 22 23  1  0  0  0  0
 23 24  1  0  0  0  0
 24 48  1  0  0  0  0
 24 25  2  0  0  0  0
 25 49  1  0  0  0  0
 25 26  1  0  0  0  0
 26 22  1  0  0  0  0
 26 27  2  0  0  0  0
 23 28  2  0  0  0  0
M  END
>  <EXTREG>  (2)
2

>  <pIC50>  (2)
5.6383

>  <COMFA_1>  (2)
154.0000

>  <CoMFA_2__1>  (2)
5.7789

$$$$
3
  -MTS-   04202218243D 0   0.00000     0.00000     0

 51 52  0  0  0  0  0  0  0  0999 V2000
    5.3250   14.9100    8.2560 O   0  0  0  0  0  0  0  0  0  0  0  0
    4.9120   14.0620    9.0110 C   0  0  0  0  0  0  0  0  0  0  0  0
    4.3750   12.9330    8.5230 O   0  0  0  0  0  0  0  0  0  0  0  0
    4.3910   12.6800    7.0930 C   0  0  0  0  0  0  0  0  0  0  0  0
    3.4710   11.5300    6.7760 C   0  0  0  0  0  0  0  0  0  0  0  0
    2.3220   11.3760    7.4630 N   0  0  0  0  0  0  0  0  0  0  0  0
    1.4530   10.3230    7.1490 C   0  0  0  0  0  0  0  0  0  0  0  0
    1.9650    9.0710    6.8340 C   0  0  0  0  0  0  0  0  0  0  0  0
    1.1080    8.0330    6.5250 C   0  0  0  0  0  0  0  0  0  0  0  0
   -0.2630    8.2390    6.5290 C   0  0  0  0  0  0  0  0  0  0  0  0
   -1.1060    7.2160    6.2250 O   0  0  0  0  0  0  0  0  0  0  0  0
   -0.4090    6.3640    5.3150 C   0  0  0  0  0  0  0  0  0  0  0  0
   -0.7760    9.4910    6.8450 C   0  0  0  0  0  0  0  0  0  0  0  0
   -2.4930    9.7490    6.8510 Cl  0  0  0  0  0  0  0  0  0  0  0  0
    0.0800   10.5280    7.1590 C   0  0  0  0  0  0  0  0  0  0  0  0
    3.7640   10.7420    5.9010 O   0  0  0  0  0  0  0  0  0  0  0  0
    5.0070   14.2680   10.5000 C   0  0  0  0  0  0  0  0  0  0  0  0
    4.5240   13.0090   11.2220 C   0  0  0  0  0  0  0  0  0  0  0  0
    4.0390   13.3790   12.6250 C   0  0  0  0  0  0  0  0  0  0  0  0
    2.7800   14.2410   12.5180 C   0  0  0  0  0  0  0  0  0  0  0  0
    3.7190   12.1030   13.4070 C   0  0  0  0  0  0  0  0  0  0  0  0
    6.3990   14.5380   10.8680 N   0  0  0  0  0  0  0  0  0  0  0  0
    7.3700   13.6240   10.7500 C   0  0  0  0  0  0  0  0  0  0  0  0
    8.6790   14.2240   11.2140 C   0  0  0  0  0  0  0  0  0  0  0  0
    8.2920   15.6600   11.6260 C   0  0  0  0  0  0  0  0  0  0  0  0
    6.8070   15.7210   11.3450 C   0  0  0  0  0  0  0  0  0  0  0  0
    6.0960   16.6860   11.5300 O   0  0  0  0  0  0  0  0  0  0  0  0
    7.2240   12.4930   10.3370 O   0  0  0  0  0  0  0  0  0  0  0  0
    4.0540   13.5710    6.5630 H   0  0  0  0  0  0  0  0  0  0  0  0
    5.4050   12.4320    6.7790 H   0  0  0  0  0  0  0  0  0  0  0  0
    2.0970   11.9940    8.1760 H   0  0  0  0  0  0  0  0  0  0  0  0
    3.0330    8.9090    6.8300 H   0  0  0  0  0  0  0  0  0  0  0  0
    1.5060    7.0590    6.2790 H   0  0  0  0  0  0  0  0  0  0  0  0
   -1.0480    5.5240    5.0410 H   0  0  0  0  0  0  0  0  0  0  0  0
   -0.1450    6.9260    4.4200 H   0  0  0  0  0  0  0  0  0  0  0  0
    0.4980    5.9890    5.7900 H   0  0  0  0  0  0  0  0  0  0  0  0
   -0.3190   11.5020    7.4050 H   0  0  0  0  0  0  0  0  0  0  0  0
    4.3840   15.1140   10.7900 H   0  0  0  0  0  0  0  0  0  0  0  0
    3.7040   12.5600   10.6600 H   0  0  0  0  0  0  0  0  0  0  0  0
    5.3450   12.2960   11.2970 H   0  0  0  0  0  0  0  0  0  0  0  0
    4.8180   13.9370   13.1430 H   0  0  0  0  0  0  0  0  0  0  0  0
    2.0000   13.6830   12.0000 H   0  0  0  0  0  0  0  0  0  0  0  0
    2.4340   14.5050   13.5180 H   0  0  0  0  0  0  0  0  0  0  0  0
    3.0070   15.1500   11.9610 H   0  0  0  0  0  0  0  0  0  0  0  0
    3.0030   11.5020   12.8450 H   0  0  0  0  0  0  0  0  0  0  0  0
    4.6340   11.5310   13.5580 H   0  0  0  0  0  0  0  0  0  0  0  0
    3.2910   12.3670   14.3740 H   0  0  0  0  0  0  0  0  0  0  0  0
    9.0720   13.6730   12.0690 H   0  0  0  0  0  0  0  0  0  0  0  0
    9.4040   14.2410   10.4000 H   0  0  0  0  0  0  0  0  0  0  0  0
    8.4930   15.8230   12.6850 H   0  0  0  0  0  0  0  0  0  0  0  0
    8.8250   16.3900   11.0160 H   0  0  0  0  0  0  0  0  0  0  0  0
  1  2  2  0  0  0  0
  2  3  1  0  0  0  0
  3  4  1  0  0  0  0
  4 29  1  0  0  0  0
  4 30  1  0  0  0  0
  4  5  1  0  0  0  0
  5  6  1  0  0  0  0
  6 31  1  0  0  0  0
  6  7  1  0  0  0  0
  7  8  2  0  0  0  0
  8 32  1  0  0  0  0
  8  9  1  0  0  0  0
  9 33  1  0  0  0  0
  9 10  2  0  0  0  0
 10 11  1  0  0  0  0
 11 12  1  0  0  0  0
 12 34  1  0  0  0  0
 12 35  1  0  0  0  0
 12 36  1  0  0  0  0
 10 13  1  0  0  0  0
 13 14  1  0  0  0  0
 13 15  2  0  0  0  0
 15  7  1  0  0  0  0
 15 37  1  0  0  0  0
  5 16  2  0  0  0  0
  2 17  1  0  0  0  0
 17 38  1  0  0  0  0
 17 18  1  0  0  0  0
 18 39  1  0  0  0  0
 18 40  1  0  0  0  0
 18 19  1  0  0  0  0
 19 41  1  0  0  0  0
 19 20  1  0  0  0  0
 20 42  1  0  0  0  0
 20 43  1  0  0  0  0
 20 44  1  0  0  0  0
 19 21  1  0  0  0  0
 21 45  1  0  0  0  0
 21 46  1  0  0  0  0
 21 47  1  0  0  0  0
 17 22  1  0  0  0  0
 22 23  1  0  0  0  0
 23 24  1  0  0  0  0
 24 48  1  0  0  0  0
 24 49  1  0  0  0  0
 24 25  1  0  0  0  0
 25 50  1  0  0  0  0
 25 51  1  0  0  0  0
 25 26  1  0  0  0  0
 26 22  1  0  0  0  0
 26 27  2  0  0  0  0
 23 28  2  0  0  0  0
M  END
>  <EXTREG>  (3)
3

>  <pIC50>  (3)
4.9208

>  <COMFA_1>  (3)
164.0000

>  <CoMFA_2__1>  (3)
5.1799

$$$$
4
  -MTS-   04202218243D 0   0.00000     0.00000     0

 52 53  0  0  0  0  0  0  0  0999 V2000
    6.3810   12.3560    9.2340 O   0  0  0  0  0  0  0  0  0  0  0  0
    5.3070   12.7810    9.5890 C   0  0  0  0  0  0  0  0  0  0  0  0
    4.2450   12.6850    8.7740 O   0  0  0  0  0  0  0  0  0  0  0  0
    4.4370   12.4600    7.3530 C   0  0  0  0  0  0  0  0  0  0  0  0
    3.4690   11.4100    6.8750 C   0  0  0  0  0  0  0  0  0  0  0  0
    2.4040   11.0800    7.6320 N   0  0  0  0  0  0  0  0  0  0  0  0
    1.5690   10.0230    7.2450 C   0  0  0  0  0  0  0  0  0  0  0  0
    2.1170    8.8650    6.7110 C   0  0  0  0  0  0  0  0  0  0  0  0
    1.2940    7.8230    6.3300 C   0  0  0  0  0  0  0  0  0  0  0  0
   -0.0800    7.9330    6.4810 C   0  0  0  0  0  0  0  0  0  0  0  0
   -0.8890    6.9070    6.1070 O   0  0  0  0  0  0  0  0  0  0  0  0
   -0.2350    6.2380    5.0270 C   0  0  0  0  0  0  0  0  0  0  0  0
   -0.6290    9.0910    7.0160 C   0  0  0  0  0  0  0  0  0  0  0  0
   -2.3490    9.2280    7.2060 Cl  0  0  0  0  0  0  0  0  0  0  0  0
    0.1930   10.1320    7.4020 C   0  0  0  0  0  0  0  0  0  0  0  0
    3.6470   10.8610    5.8080 O   0  0  0  0  0  0  0  0  0  0  0  0
    5.1590   13.4110   10.9500 C   0  0  0  0  0  0  0  0  0  0  0  0
    5.1270   12.3170   12.0190 C   0  0  0  0  0  0  0  0  0  0  0  0
    4.5780   12.8950   13.3240 C   0  0  0  0  0  0  0  0  0  0  0  0
    3.2220   13.5520   13.0600 C   0  0  0  0  0  0  0  0  0  0  0  0
    4.4090   11.7710   14.3480 C   0  0  0  0  0  0  0  0  0  0  0  0
    6.2920   14.3050   11.1990 N   0  0  0  0  0  0  0  0  0  0  0  0
    6.2050   15.6350   11.3830 C   0  0  0  0  0  0  0  0  0  0  0  0
    7.5690   16.1660   11.6040 C   0  0  0  0  0  0  0  0  0  0  0  0
    8.4080   15.1200   11.5410 C   0  0  0  0  0  0  0  0  0  0  0  0
    9.9060   15.1580   11.7050 C   0  0  0  0  0  0  0  0  0  0  0  0
    7.5790   13.9210   11.2850 C   0  0  0  0  0  0  0  0  0  0  0  0
    7.9900   12.7850   11.1660 O   0  0  0  0  0  0  0  0  0  0  0  0
    5.1820   16.2880   11.3700 O   0  0  0  0  0  0  0  0  0  0  0  0
    4.2630   13.3890    6.8110 H   0  0  0  0  0  0  0  0  0  0  0  0
    5.4580   12.1210    7.1740 H   0  0  0  0  0  0  0  0  0  0  0  0
    2.2150   11.5740    8.4450 H   0  0  0  0  0  0  0  0  0  0  0  0
    3.1870    8.7790    6.5920 H   0  0  0  0  0  0  0  0  0  0  0  0
    1.7210    6.9230    5.9140 H   0  0  0  0  0  0  0  0  0  0  0  0
   -0.8490    5.4030    4.6910 H   0  0  0  0  0  0  0  0  0  0  0  0
   -0.0880    6.9360    4.2030 H   0  0  0  0  0  0  0  0  0  0  0  0
    0.7320    5.8640    5.3640 H   0  0  0  0  0  0  0  0  0  0  0  0
   -0.2340   11.0320    7.8180 H   0  0  0  0  0  0  0  0  0  0  0  0
    4.2310   13.9820   10.9870 H   0  0  0  0  0  0  0  0  0  0  0  0
    4.4870   11.5010   11.6840 H   0  0  0  0  0  0  0  0  0  0  0  0
    6.1370   11.9420   12.1840 H   0  0  0  0  0  0  0  0  0  0  0  0
    5.2730   13.6390   13.7130 H   0  0  0  0  0  0  0  0  0  0  0  0
    2.5270   12.8080   12.6710 H   0  0  0  0  0  0  0  0  0  0  0  0
    2.8300   13.9640   13.9900 H   0  0  0  0  0  0  0  0  0  0  0  0
    3.3420   14.3530   12.3310 H   0  0  0  0  0  0  0  0  0  0  0  0
    3.7810   10.9860   13.9260 H   0  0  0  0  0  0  0  0  0  0  0  0
    5.3860   11.3590   14.6000 H   0  0  0  0  0  0  0  0  0  0  0  0
    3.9390   12.1670   15.2480 H   0  0  0  0  0  0  0  0  0  0  0  0
    7.8370   17.1970   11.7820 H   0  0  0  0  0  0  0  0  0  0  0  0
   10.2250   16.1840   11.8870 H   0  0  0  0  0  0  0  0  0  0  0  0
   10.1950   14.5320   12.5490 H   0  0  0  0  0  0  0  0  0  0  0  0
   10.3800   14.7850   10.7970 H   0  0  0  0  0  0  0  0  0  0  0  0
  1  2  2  0  0  0  0
  2  3  1  0  0  0  0
  3  4  1  0  0  0  0
  4 30  1  0  0  0  0
  4 31  1  0  0  0  0
  4  5  1  0  0  0  0
  5  6  1  0  0  0  0
  6 32  1  0  0  0  0
  6  7  1  0  0  0  0
  7  8  2  0  0  0  0
  8 33  1  0  0  0  0
  8  9  1  0  0  0  0
  9 34  1  0  0  0  0
  9 10  2  0  0  0  0
 10 11  1  0  0  0  0
 11 12  1  0  0  0  0
 12 35  1  0  0  0  0
 12 36  1  0  0  0  0
 12 37  1  0  0  0  0
 10 13  1  0  0  0  0
 13 14  1  0  0  0  0
 13 15  2  0  0  0  0
 15  7  1  0  0  0  0
 15 38  1  0  0  0  0
  5 16  2  0  0  0  0
  2 17  1  0  0  0  0
 17 39  1  0  0  0  0
 17 18  1  0  0  0  0
 18 40  1  0  0  0  0
 18 41  1  0  0  0  0
 18 19  1  0  0  0  0
 19 42  1  0  0  0  0
 19 20  1  0  0  0  0
 20 43  1  0  0  0  0
 20 44  1  0  0  0  0
 20 45  1  0  0  0  0
 19 21  1  0  0  0  0
 21 46  1  0  0  0  0
 21 47  1  0  0  0  0
 21 48  1  0  0  0  0
 17 22  1  0  0  0  0
 22 23  1  0  0  0  0
 23 24  1  0  0  0  0
 24 49  1  0  0  0  0
 24 25  2  0  0  0  0
 25 26  1  0  0  0  0
 26 50  1  0  0  0  0
 26 51  1  0  0  0  0
 26 52  1  0  0  0  0
 25 27  1  0  0  0  0
 27 22  1  0  0  0  0
 27 28  2  0  0  0  0
 23 29  2  0  0  0  0
M  END
>  <EXTREG>  (4)
4

>  <pIC50>  (4)
5.6021

>  <COMFA_1>  (4)
162.0000

>  <CoMFA_2__1>  (4)
5.7505

$$$$
7
  -MTS-   04202218243D 0   0.00000     0.00000     0

 50 52  0  0  0  0  0  0  0  0999 V2000
    4.7080   14.9920    8.5200 O   0  0  0  0  0  0  0  0  0  0  0  0
    4.5190   14.0120    9.2010 C   0  0  0  0  0  0  0  0  0  0  0  0
    4.0820   12.8760    8.6360 O   0  0  0  0  0  0  0  0  0  0  0  0
    4.1450   12.7110    7.1950 C   0  0  0  0  0  0  0  0  0  0  0  0
    3.2100   11.6060    6.7740 C   0  0  0  0  0  0  0  0  0  0  0  0
    2.2240   11.2070    7.6020 N   0  0  0  0  0  0  0  0  0  0  0  0
    1.4290   10.1040    7.2630 C   0  0  0  0  0  0  0  0  0  0  0  0
    2.0060    8.9860    6.6770 C   0  0  0  0  0  0  0  0  0  0  0  0
    1.2220    7.8990    6.3430 C   0  0  0  0  0  0  0  0  0  0  0  0
   -0.1420    7.9240    6.5930 C   0  0  0  0  0  0  0  0  0  0  0  0
   -0.9130    6.8530    6.2640 O   0  0  0  0  0  0  0  0  0  0  0  0
   -0.2980    6.2330    5.1330 C   0  0  0  0  0  0  0  0  0  0  0  0
   -0.7200    9.0420    7.1790 C   0  0  0  0  0  0  0  0  0  0  0  0
   -2.4270    9.0720    7.4920 Cl  0  0  0  0  0  0  0  0  0  0  0  0
    0.0640   10.1270    7.5180 C   0  0  0  0  0  0  0  0  0  0  0  0
    3.3450   11.0760    5.6920 O   0  0  0  0  0  0  0  0  0  0  0  0
    4.7780   14.0650   10.6850 C   0  0  0  0  0  0  0  0  0  0  0  0
    4.5970   12.6690   11.2840 C   0  0  0  0  0  0  0  0  0  0  0  0
    4.3690   12.7850   12.7690 C   0  0  0  0  0  0  0  0  0  0  0  0
    5.2430   12.1810   13.6530 C   0  0  0  0  0  0  0  0  0  0  0  0
    5.0340   12.2870   15.0150 C   0  0  0  0  0  0  0  0  0  0  0  0
    3.9500   13.0000   15.4940 C   0  0  0  0  0  0  0  0  0  0  0  0
    3.0760   13.6050   14.6100 C   0  0  0  0  0  0  0  0  0  0  0  0
    3.2880   13.5020   13.2480 C   0  0  0  0  0  0  0  0  0  0  0  0
    6.1470   14.5260   10.9250 N   0  0  0  0  0  0  0  0  0  0  0  0
    7.2620   13.8740   10.5500 C   0  0  0  0  0  0  0  0  0  0  0  0
    8.4350   14.6690   10.9780 C   0  0  0  0  0  0  0  0  0  0  0  0
    7.9580   15.7640   11.5920 C   0  0  0  0  0  0  0  0  0  0  0  0
    6.4820   15.6700   11.5500 C   0  0  0  0  0  0  0  0  0  0  0  0
    5.7050   16.4820   12.0080 O   0  0  0  0  0  0  0  0  0  0  0  0
    7.3000   12.8130    9.9610 O   0  0  0  0  0  0  0  0  0  0  0  0
    3.8500   13.6410    6.7100 H   0  0  0  0  0  0  0  0  0  0  0  0
    5.1640   12.4550    6.9030 H   0  0  0  0  0  0  0  0  0  0  0  0
    2.0650   11.6830    8.4320 H   0  0  0  0  0  0  0  0  0  0  0  0
    3.0680    8.9660    6.4810 H   0  0  0  0  0  0  0  0  0  0  0  0
    1.6710    7.0290    5.8870 H   0  0  0  0  0  0  0  0  0  0  0  0
   -0.8840    5.3640    4.8310 H   0  0  0  0  0  0  0  0  0  0  0  0
   -0.2530    6.9440    4.3080 H   0  0  0  0  0  0  0  0  0  0  0  0
    0.7120    5.9170    5.3960 H   0  0  0  0  0  0  0  0  0  0  0  0
   -0.3860   10.9970    7.9740 H   0  0  0  0  0  0  0  0  0  0  0  0
    4.0750   14.7550   11.1520 H   0  0  0  0  0  0  0  0  0  0  0  0
    3.7380   12.1830   10.8220 H   0  0  0  0  0  0  0  0  0  0  0  0
    5.4930   12.0760   11.1000 H   0  0  0  0  0  0  0  0  0  0  0  0
    6.0900   11.6240   13.2780 H   0  0  0  0  0  0  0  0  0  0  0  0
    5.7160   11.8140   15.7050 H   0  0  0  0  0  0  0  0  0  0  0  0
    3.7860   13.0820   16.5580 H   0  0  0  0  0  0  0  0  0  0  0  0
    2.2290   14.1620   14.9850 H   0  0  0  0  0  0  0  0  0  0  0  0
    2.6050   13.9760   12.5580 H   0  0  0  0  0  0  0  0  0  0  0  0
    9.4740   14.4160   10.8260 H   0  0  0  0  0  0  0  0  0  0  0  0
    8.5400   16.5620   12.0290 H   0  0  0  0  0  0  0  0  0  0  0  0
  1  2  2  0  0  0  0
  2  3  1  0  0  0  0
  3  4  1  0  0  0  0
  4 32  1  0  0  0  0
  4 33  1  0  0  0  0
  4  5  1  0  0  0  0
  5  6  1  0  0  0  0
  6 34  1  0  0  0  0
  6  7  1  0  0  0  0
  7  8  2  0  0  0  0
  8 35  1  0  0  0  0
  8  9  1  0  0  0  0
  9 36  1  0  0  0  0
  9 10  2  0  0  0  0
 10 11  1  0  0  0  0
 11 12  1  0  0  0  0
 12 37  1  0  0  0  0
 12 38  1  0  0  0  0
 12 39  1  0  0  0  0
 10 13  1  0  0  0  0
 13 14  1  0  0  0  0
 13 15  2  0  0  0  0
 15  7  1  0  0  0  0
 15 40  1  0  0  0  0
  5 16  2  0  0  0  0
  2 17  1  0  0  0  0
 17 41  1  0  0  0  0
 17 18  1  0  0  0  0
 18 42  1  0  0  0  0
 18 43  1  0  0  0  0
 18 19  1  0  0  0  0
 19 20  2  0  0  0  0
 20 44  1  0  0  0  0
 20 21  1  0  0  0  0
 21 45  1  0  0  0  0
 21 22  2  0  0  0  0
 22 46  1  0  0  0  0
 22 23  1  0  0  0  0
 23 47  1  0  0  0  0
 23 24  2  0  0  0  0
 24 19  1  0  0  0  0
 24 48  1  0  0  0  0
 17 25  1  0  0  0  0
 25 26  1  0  0  0  0
 26 27  1  0  0  0  0
 27 49  1  0  0  0  0
 27 28  2  0  0  0  0
 28 50  1  0  0  0  0
 28 29  1  0  0  0  0
 29 25  1  0  0  0  0
 29 30  2  0  0  0  0
 26 31  2  0  0  0  0
M  END
>  <EXTREG>  (7)
7

>  <pIC50>  (7)
6.2218

>  <COMFA_1>  (7)
160.0000

>  <CoMFA_2__1>  (7)
6.1770

$$$$
10
  -MTS-   04202218243D 0   0.00000     0.00000     0

 55 57  0  0  0  0  0  0  0  0999 V2000
    4.8380   15.1620    7.5550 O   0  0  0  0  0  0  0  0  0  0  0  0
    4.9570   14.1470    8.1990 C   0  0  0  0  0  0  0  0  0  0  0  0
    4.1230   13.1170    7.9890 O   0  0  0  0  0  0  0  0  0  0  0  0
    3.0370   13.2450    7.0330 C   0  0  0  0  0  0  0  0  0  0  0  0
    2.5690   11.8740    6.6180 C   0  0  0  0  0  0  0  0  0  0  0  0
    1.5510   11.2830    7.2750 N   0  0  0  0  0  0  0  0  0  0  0  0
    1.1930    9.9650    6.9690 C   0  0  0  0  0  0  0  0  0  0  0  0
    2.1760    9.0180    6.7160 C   0  0  0  0  0  0  0  0  0  0  0  0
    1.8200    7.7180    6.4150 C   0  0  0  0  0  0  0  0  0  0  0  0
    0.4860    7.3580    6.3640 C   0  0  0  0  0  0  0  0  0  0  0  0
   -0.4970    8.3000    6.6160 C   0  0  0  0  0  0  0  0  0  0  0  0
   -2.1710    7.8440    6.5520 Cl  0  0  0  0  0  0  0  0  0  0  0  0
   -0.1460    9.6010    6.9240 C   0  0  0  0  0  0  0  0  0  0  0  0
    3.1080   11.3030    5.6940 O   0  0  0  0  0  0  0  0  0  0  0  0
    6.0480   14.0350    9.2330 C   0  0  0  0  0  0  0  0  0  0  0  0
    6.7010   15.4040    9.4360 C   0  0  0  0  0  0  0  0  0  0  0  0
    7.8290   15.2830   10.4620 C   0  0  0  0  0  0  0  0  0  0  0  0
    8.7760   16.4770   10.3220 C   0  0  0  0  0  0  0  0  0  0  0  0
    7.2360   15.2650   11.8720 C   0  0  0  0  0  0  0  0  0  0  0  0
    5.4740   13.5750   10.5000 N   0  0  0  0  0  0  0  0  0  0  0  0
    4.3600   14.1190   11.0540 C   0  0  0  0  0  0  0  0  0  0  0  0
    4.2890   13.5930   12.4550 C   0  0  0  0  0  0  0  0  0  0  0  0
    2.9250   13.3060   13.0460 C   0  0  0  0  0  0  0  0  0  0  0  0
    3.1500   12.4760   14.2920 C   0  0  0  0  0  0  0  0  0  0  0  0
    4.2450   11.8260   14.5510 C   0  0  0  0  0  0  0  0  0  0  0  0
    5.4490   11.7800   13.6350 C   0  0  0  0  0  0  0  0  0  0  0  0
    4.9740   12.2050   12.2610 C   0  0  0  0  0  0  0  0  0  0  0  0
    6.0020   12.5590   11.2310 C   0  0  0  0  0  0  0  0  0  0  0  0
    7.0880   12.0430   11.0800 O   0  0  0  0  0  0  0  0  0  0  0  0
    3.5790   14.8790   10.5210 O   0  0  0  0  0  0  0  0  0  0  0  0
    2.2110   13.7880    7.4920 H   0  0  0  0  0  0  0  0  0  0  0  0
    3.3880   13.7900    6.1560 H   0  0  0  0  0  0  0  0  0  0  0  0
    1.0660   11.7710    7.9590 H   0  0  0  0  0  0  0  0  0  0  0  0
    3.2190    9.2980    6.7540 H   0  0  0  0  0  0  0  0  0  0  0  0
    2.5850    6.9810    6.2180 H   0  0  0  0  0  0  0  0  0  0  0  0
    0.2110    6.3410    6.1280 H   0  0  0  0  0  0  0  0  0  0  0  0
   -0.9130   10.3350    7.1200 H   0  0  0  0  0  0  0  0  0  0  0  0
    6.7980   13.3210    8.8930 H   0  0  0  0  0  0  0  0  0  0  0  0
    7.1080   15.7560    8.4880 H   0  0  0  0  0  0  0  0  0  0  0  0
    5.9550   16.1120    9.7970 H   0  0  0  0  0  0  0  0  0  0  0  0
    8.3820   14.3600   10.2880 H   0  0  0  0  0  0  0  0  0  0  0  0
    8.2230   17.4010   10.4960 H   0  0  0  0  0  0  0  0  0  0  0  0
    9.5790   16.3910   11.0540 H   0  0  0  0  0  0  0  0  0  0  0  0
    9.1980   16.4900    9.3180 H   0  0  0  0  0  0  0  0  0  0  0  0
    6.6150   16.1480   12.0170 H   0  0  0  0  0  0  0  0  0  0  0  0
    6.6290   14.3690   11.9990 H   0  0  0  0  0  0  0  0  0  0  0  0
    8.0430   15.2640   12.6060 H   0  0  0  0  0  0  0  0  0  0  0  0
    4.8670   14.2270   13.1280 H   0  0  0  0  0  0  0  0  0  0  0  0
    2.4280   14.2410   13.3060 H   0  0  0  0  0  0  0  0  0  0  0  0
    2.3200   12.7480   12.3310 H   0  0  0  0  0  0  0  0  0  0  0  0
    2.3480   12.4210   15.0130 H   0  0  0  0  0  0  0  0  0  0  0  0
    4.2990   11.2820   15.4830 H   0  0  0  0  0  0  0  0  0  0  0  0
    6.2160   12.4670   13.9930 H   0  0  0  0  0  0  0  0  0  0  0  0
    5.8460   10.7650   13.5930 H   0  0  0  0  0  0  0  0  0  0  0  0
    4.2630   11.4810   11.8650 H   0  0  0  0  0  0  0  0  0  0  0  0
  1  2  2  0  0  0  0
  2  3  1  0  0  0  0
  3  4  1  0  0  0  0
  4 31  1  0  0  0  0
  4 32  1  0  0  0  0
  4  5  1  0  0  0  0
  5  6  1  0  0  0  0
  6 33  1  0  0  0  0
  6  7  1  0  0  0  0
  7  8  2  0  0  0  0
  8 34  1  0  0  0  0
  8  9  1  0  0  0  0
  9 35  1  0  0  0  0
  9 10  2  0  0  0  0
 10 36  1  0  0  0  0
 10 11  1  0  0  0  0
 11 12  1  0  0  0  0
 11 13  2  0  0  0  0
 13  7  1  0  0  0  0
 13 37  1  0  0  0  0
  5 14  2  0  0  0  0
  2 15  1  0  0  0  0
 15 38  1  0  0  0  0
 15 16  1  0  0  0  0
 16 39  1  0  0  0  0
 16 40  1  0  0  0  0
 16 17  1  0  0  0  0
 17 41  1  0  0  0  0
 17 18  1  0  0  0  0
 18 42  1  0  0  0  0
 18 43  1  0  0  0  0
 18 44  1  0  0  0  0
 17 19  1  0  0  0  0
 19 45  1  0  0  0  0
 19 46  1  0  0  0  0
 19 47  1  0  0  0  0
 15 20  1  0  0  0  0
 20 21  1  0  0  0  0
 21 22  1  0  0  0  0
 22 48  1  0  0  0  0
 22 23  1  0  0  0  0
 23 49  1  0  0  0  0
 23 50  1  0  0  0  0
 23 24  1  0  0  0  0
 24 51  1  0  0  0  0
 24 25  2  0  0  0  0
 25 52  1  0  0  0  0
 25 26  1  0  0  0  0
 26 53  1  0  0  0  0
 26 54  1  0  0  0  0
 26 27  1  0  0  0  0
 27 22  1  0  0  0  0
 27 55  1  0  0  0  0
 27 28  1  0  0  0  0
 28 20  1  0  0  0  0
 28 29  2  0  0  0  0
 21 30  2  0  0  0  0
M  END
>  <EXTREG>  (10)
10

>  <pIC50>  (10)
4.3969

>  <COMFA_1>  (10)
172.0000

>  <CoMFA_2__1>  (10)
4.5332

$$$$
12
  -MTS-   04202218243D 0   0.00000     0.00000     0

 55 57  0  0  0  0  0  0  0  0999 V2000
    3.7690   14.7040    7.1500 O   0  0  0  0  0  0  0  0  0  0  0  0
    3.2210   13.6360    7.2970 C   0  0  0  0  0  0  0  0  0  0  0  0
    3.6910   12.7610    8.2000 O   0  0  0  0  0  0  0  0  0  0  0  0
    5.1010   12.7610    8.5460 C   0  0  0  0  0  0  0  0  0  0  0  0
    5.2500   12.8190   10.0440 C   0  0  0  0  0  0  0  0  0  0  0  0
    4.2780   12.3260   10.8380 N   0  0  0  0  0  0  0  0  0  0  0  0
    4.3600   12.4860   12.2270 C   0  0  0  0  0  0  0  0  0  0  0  0
    3.2200   12.7840   12.9610 C   0  0  0  0  0  0  0  0  0  0  0  0
    3.3030   12.9400   14.3310 C   0  0  0  0  0  0  0  0  0  0  0  0
    4.5230   12.8000   14.9720 C   0  0  0  0  0  0  0  0  0  0  0  0
    4.6020   12.9520   16.3120 F   0  0  0  0  0  0  0  0  0  0  0  0
    5.6610   12.5020   14.2410 C   0  0  0  0  0  0  0  0  0  0  0  0
    5.5810   12.3400   12.8720 C   0  0  0  0  0  0  0  0  0  0  0  0
    6.2440   13.3090   10.5370 O   0  0  0  0  0  0  0  0  0  0  0  0
    2.0090   13.2910    6.4720 C   0  0  0  0  0  0  0  0  0  0  0  0
    2.2860   13.6070    5.0010 C   0  0  0  0  0  0  0  0  0  0  0  0
    0.9770   13.5430    4.2100 C   0  0  0  0  0  0  0  0  0  0  0  0
    1.2040   14.0980    2.8030 C   0  0  0  0  0  0  0  0  0  0  0  0
    0.5080   12.0900    4.1160 C   0  0  0  0  0  0  0  0  0  0  0  0
    1.7090   11.8650    6.6170 N   0  0  0  0  0  0  0  0  0  0  0  0
    2.5640   10.8810    6.2330 C   0  0  0  0  0  0  0  0  0  0  0  0
    1.7760    9.6070    6.2610 C   0  0  0  0  0  0  0  0  0  0  0  0
    2.4820    8.3360    6.6830 C   0  0  0  0  0  0  0  0  0  0  0  0
    1.4060    7.3060    6.9600 C   0  0  0  0  0  0  0  0  0  0  0  0
    0.1570    7.5900    7.1740 C   0  0  0  0  0  0  0  0  0  0  0  0
   -0.4070    8.9950    7.2040 C   0  0  0  0  0  0  0  0  0  0  0  0
    0.7640    9.9350    7.4010 C   0  0  0  0  0  0  0  0  0  0  0  0
    0.5520   11.3970    7.1550 C   0  0  0  0  0  0  0  0  0  0  0  0
   -0.4520   12.0360    7.3850 O   0  0  0  0  0  0  0  0  0  0  0  0
    3.7300   11.0090    5.9290 O   0  0  0  0  0  0  0  0  0  0  0  0
    5.5670   11.8500    8.1700 H   0  0  0  0  0  0  0  0  0  0  0  0
    5.5850   13.6290    8.0990 H   0  0  0  0  0  0  0  0  0  0  0  0
    3.5220   11.8610   10.4470 H   0  0  0  0  0  0  0  0  0  0  0  0
    2.2690   12.8940   12.4610 H   0  0  0  0  0  0  0  0  0  0  0  0
    2.4170   13.1730   14.9020 H   0  0  0  0  0  0  0  0  0  0  0  0
    6.6110   12.3930   14.7430 H   0  0  0  0  0  0  0  0  0  0  0  0
    6.4690   12.1080   12.3030 H   0  0  0  0  0  0  0  0  0  0  0  0
    1.1570   13.8780    6.8160 H   0  0  0  0  0  0  0  0  0  0  0  0
    2.7120   14.6070    4.9180 H   0  0  0  0  0  0  0  0  0  0  0  0
    2.9890   12.8780    4.5990 H   0  0  0  0  0  0  0  0  0  0  0  0
    0.2170   14.1380    4.7170 H   0  0  0  0  0  0  0  0  0  0  0  0
    1.9640   13.5030    2.2960 H   0  0  0  0  0  0  0  0  0  0  0  0
    0.2720   14.0530    2.2400 H   0  0  0  0  0  0  0  0  0  0  0  0
    1.5380   15.1330    2.8700 H   0  0  0  0  0  0  0  0  0  0  0  0
    1.3020   11.4790    3.6860 H   0  0  0  0  0  0  0  0  0  0  0  0
    0.2660   11.7210    5.1130 H   0  0  0  0  0  0  0  0  0  0  0  0
   -0.3770   12.0340    3.4830 H   0  0  0  0  0  0  0  0  0  0  0  0
    1.2640    9.4570    5.3100 H   0  0  0  0  0  0  0  0  0  0  0  0
    3.1330    7.9870    5.8810 H   0  0  0  0  0  0  0  0  0  0  0  0
    3.0650    8.5170    7.5860 H   0  0  0  0  0  0  0  0  0  0  0  0
    1.6980    6.2660    6.9810 H   0  0  0  0  0  0  0  0  0  0  0  0
   -0.5250    6.7700    7.3410 H   0  0  0  0  0  0  0  0  0  0  0  0
   -0.9060    9.2160    6.2600 H   0  0  0  0  0  0  0  0  0  0  0  0
   -1.1090    9.0970    8.0310 H   0  0  0  0  0  0  0  0  0  0  0  0
    1.2210    9.7700    8.3770 H   0  0  0  0  0  0  0  0  0  0  0  0
  1  2  2  0  0  0  0
  2  3  1  0  0  0  0
  3  4  1  0  0  0  0
  4 31  1  0  0  0  0
  4 32  1  0  0  0  0
  4  5  1  0  0  0  0
  5  6  1  0  0  0  0
  6 33  1  0  0  0  0
  6  7  1  0  0  0  0
  7  8  2  0  0  0  0
  8 34  1  0  0  0  0
  8  9  1  0  0  0  0
  9 35  1  0  0  0  0
  9 10  2  0  0  0  0
 10 11  1  0  0  0  0
 10 12  1  0  0  0  0
 12 36  1  0  0  0  0
 12 13  2  0  0  0  0
 13  7  1  0  0  0  0
 13 37  1  0  0  0  0
  5 14  2  0  0  0  0
  2 15  1  0  0  0  0
 15 38  1  0  0  0  0
 15 16  1  0  0  0  0
 16 39  1  0  0  0  0
 16 40  1  0  0  0  0
 16 17  1  0  0  0  0
 17 41  1  0  0  0  0
 17 18  1  0  0  0  0
 18 42  1  0  0  0  0
 18 43  1  0  0  0  0
 18 44  1  0  0  0  0
 17 19  1  0  0  0  0
 19 45  1  0  0  0  0
 19 46  1  0  0  0  0
 19 47  1  0  0  0  0
 15 20  1  0  0  0  0
 20 21  1  0  0  0  0
 21 22  1  0  0  0  0
 22 48  1  0  0  0  0
 22 23  1  0  0  0  0
 23 49  1  0  0  0  0
 23 50  1  0  0  0  0
 23 24  1  0  0  0  0
 24 51  1  0  0  0  0
 24 25  2  0  0  0  0
 25 52  1  0  0  0  0
 25 26  1  0  0  0  0
 26 53  1  0  0  0  0
 26 54  1  0  0  0  0
 26 27  1  0  0  0  0
 27 22  1  0  0  0  0
 27 55  1  0  0  0  0
 27 28  1  0  0  0  0
 28 20  1  0  0  0  0
 28 29  2  0  0  0  0
 21 30  2  0  0  0  0
M  END
>  <EXTREG>  (12)
12

>  <pIC50>  (12)
4.6882

>  <COMFA_1>  (12)
162.0000

>  <CoMFA_2__1>  (12)
4.7748

$$$$
14
  -MTS-   04202218243D 0   0.00000     0.00000     0

 60 62  0  0  0  0  0  0  0  0999 V2000
    4.4360   14.7360    9.1060 O   0  0  0  0  0  0  0  0  0  0  0  0
    5.0630   13.7040    9.1500 C   0  0  0  0  0  0  0  0  0  0  0  0
    4.8620   12.7570    8.2200 O   0  0  0  0  0  0  0  0  0  0  0  0
    4.0720   13.0560    7.0390 C   0  0  0  0  0  0  0  0  0  0  0  0
    3.2750   11.8380    6.6460 C   0  0  0  0  0  0  0  0  0  0  0  0
    2.1800   11.4930    7.3520 N   0  0  0  0  0  0  0  0  0  0  0  0
    1.5080   10.2980    7.0620 C   0  0  0  0  0  0  0  0  0  0  0  0
    0.1200   10.2610    7.0780 C   0  0  0  0  0  0  0  0  0  0  0  0
   -0.5430    9.0840    6.7920 C   0  0  0  0  0  0  0  0  0  0  0  0
    0.1790    7.9360    6.4900 C   0  0  0  0  0  0  0  0  0  0  0  0
   -0.4920    6.7440    6.2000 N   0  0  0  0  0  0  0  0  0  0  0  0
   -1.6890    6.7630    5.3550 C   0  0  0  0  0  0  0  0  0  0  0  0
    1.5670    7.9730    6.4740 C   0  0  0  0  0  0  0  0  0  0  0  0
    2.2290    9.1520    6.7550 C   0  0  0  0  0  0  0  0  0  0  0  0
    3.6200   11.1680    5.6960 O   0  0  0  0  0  0  0  0  0  0  0  0
    6.0740   13.4830   10.2450 C   0  0  0  0  0  0  0  0  0  0  0  0
    7.0460   14.6630   10.2880 C   0  0  0  0  0  0  0  0  0  0  0  0
    8.4030   14.1880   10.8130 C   0  0  0  0  0  0  0  0  0  0  0  0
    9.3900   15.3560   10.8050 C   0  0  0  0  0  0  0  0  0  0  0  0
    8.2420   13.6660   12.2420 C   0  0  0  0  0  0  0  0  0  0  0  0
    5.3840   13.3720   11.5320 N   0  0  0  0  0  0  0  0  0  0  0  0
    4.6920   14.3950   12.0970 C   0  0  0  0  0  0  0  0  0  0  0  0
    4.4130   13.9830   13.5100 C   0  0  0  0  0  0  0  0  0  0  0  0
    3.0980   14.4030   14.1340 C   0  0  0  0  0  0  0  0  0  0  0  0
    2.9250   13.5790   15.3920 C   0  0  0  0  0  0  0  0  0  0  0  0
    3.5690   12.4790   15.6430 C   0  0  0  0  0  0  0  0  0  0  0  0
    4.5720   11.8430   14.7040 C   0  0  0  0  0  0  0  0  0  0  0  0
    4.3280   12.4350   13.3320 C   0  0  0  0  0  0  0  0  0  0  0  0
    5.3680   12.2330   12.2740 C   0  0  0  0  0  0  0  0  0  0  0  0
    6.0610   11.2520   12.1120 O   0  0  0  0  0  0  0  0  0  0  0  0
    4.3670   15.4350   11.5650 O   0  0  0  0  0  0  0  0  0  0  0  0
    3.3920   13.8800    7.2550 H   0  0  0  0  0  0  0  0  0  0  0  0
    4.7340   13.3360    6.2200 H   0  0  0  0  0  0  0  0  0  0  0  0
    1.8570   12.0720    8.0600 H   0  0  0  0  0  0  0  0  0  0  0  0
   -0.4420   11.1530    7.3130 H   0  0  0  0  0  0  0  0  0  0  0  0
   -1.6220    9.0550    6.8050 H   0  0  0  0  0  0  0  0  0  0  0  0
   -0.1650    5.9040    6.5590 H   0  0  0  0  0  0  0  0  0  0  0  0
   -2.0700    5.7480    5.2420 H   0  0  0  0  0  0  0  0  0  0  0  0
   -2.4510    7.3880    5.8200 H   0  0  0  0  0  0  0  0  0  0  0  0
   -1.4350    7.1670    4.3750 H   0  0  0  0  0  0  0  0  0  0  0  0
    2.1290    7.0820    6.2390 H   0  0  0  0  0  0  0  0  0  0  0  0
    3.3090    9.1810    6.7420 H   0  0  0  0  0  0  0  0  0  0  0  0
    6.6270   12.5640   10.0490 H   0  0  0  0  0  0  0  0  0  0  0  0
    7.1680   15.0700    9.2840 H   0  0  0  0  0  0  0  0  0  0  0  0
    6.6510   15.4350   10.9480 H   0  0  0  0  0  0  0  0  0  0  0  0
    8.7800   13.3890   10.1740 H   0  0  0  0  0  0  0  0  0  0  0  0
    9.0130   16.1550   11.4440 H   0  0  0  0  0  0  0  0  0  0  0  0
   10.3560   15.0180   11.1790 H   0  0  0  0  0  0  0  0  0  0  0  0
    9.5050   15.7290    9.7870 H   0  0  0  0  0  0  0  0  0  0  0  0
    7.7860   14.4380   12.8620 H   0  0  0  0  0  0  0  0  0  0  0  0
    7.6050   12.7810   12.2360 H   0  0  0  0  0  0  0  0  0  0  0  0
    9.2200   13.4060   12.6460 H   0  0  0  0  0  0  0  0  0  0  0  0
    5.2450   14.2600   14.1580 H   0  0  0  0  0  0  0  0  0  0  0  0
    3.1280   15.4630   14.3850 H   0  0  0  0  0  0  0  0  0  0  0  0
    2.2790   14.2060   13.4430 H   0  0  0  0  0  0  0  0  0  0  0  0
    2.2180   13.9280   16.1300 H   0  0  0  0  0  0  0  0  0  0  0  0
    3.3770   11.9860   16.5840 H   0  0  0  0  0  0  0  0  0  0  0  0
    5.5870   12.0720   15.0320 H   0  0  0  0  0  0  0  0  0  0  0  0
    4.4230   10.7640   14.6760 H   0  0  0  0  0  0  0  0  0  0  0  0
    3.3430   12.1470   12.9650 H   0  0  0  0  0  0  0  0  0  0  0  0
  1  2  2  0  0  0  0
  2  3  1  0  0  0  0
  3  4  1  0  0  0  0
  4 32  1  0  0  0  0
  4 33  1  0  0  0  0
  4  5  1  0  0  0  0
  5  6  1  0  0  0  0
  6 34  1  0  0  0  0
  6  7  1  0  0  0  0
  7  8  2  0  0  0  0
  8 35  1  0  0  0  0
  8  9  1  0  0  0  0
  9 36  1  0  0  0  0
  9 10  2  0  0  0  0
 10 11  1  0  0  0  0
 11 37  1  0  0  0  0
 11 12  1  0  0  0  0
 12 38  1  0  0  0  0
 12 39  1  0  0  0  0
 12 40  1  0  0  0  0
 10 13  1  0  0  0  0
 13 41  1  0  0  0  0
 13 14  2  0  0  0  0
 14  7  1  0  0  0  0
 14 42  1  0  0  0  0
  5 15  2  0  0  0  0
  2 16  1  0  0  0  0
 16 43  1  0  0  0  0
 16 17  1  0  0  0  0
 17 44  1  0  0  0  0
 17 45  1  0  0  0  0
 17 18  1  0  0  0  0
 18 46  1  0  0  0  0
 18 19  1  0  0  0  0
 19 47  1  0  0  0  0
 19 48  1  0  0  0  0
 19 49  1  0  0  0  0
 18 20  1  0  0  0  0
 20 50  1  0  0  0  0
 20 51  1  0  0  0  0
 20 52  1  0  0  0  0
 16 21  1  0  0  0  0
 21 22  1  0  0  0  0
 22 23  1  0  0  0  0
 23 53  1  0  0  0  0
 23 24  1  0  0  0  0
 24 54  1  0  0  0  0
 24 55  1  0  0  0  0
 24 25  1  0  0  0  0
 25 56  1  0  0  0  0
 25 26  2  0  0  0  0
 26 57  1  0  0  0  0
 26 27  1  0  0  0  0
 27 58  1  0  0  0  0
 27 59  1  0  0  0  0
 27 28  1  0  0  0  0
 28 23  1  0  0  0  0
 28 60  1  0  0  0  0
 28 29  1  0  0  0  0
 29 21  1  0  0  0  0
 29 30  2  0  0  0  0
 22 31  2  0  0  0  0
M  END
>  <EXTREG>  (14)
14

>  <pIC50>  (14)
4.1249

>  <COMFA_1>  (14)
190.0000

>  <CoMFA_2__1>  (14)
4.1186

$$$$
16
  -MTS-   04202218243D 0   0.00000     0.00000     0

 59 61  0  0  0  0  0  0  0  0999 V2000
    4.9820   15.0770    8.5180 O   0  0  0  0  0  0  0  0  0  0  0  0
    5.2400   13.9400    8.8360 C   0  0  0  0  0  0  0  0  0  0  0  0
    4.6720   12.9150    8.1810 O   0  0  0  0  0  0  0  0  0  0  0  0
    3.7640   13.1720    7.0770 C   0  0  0  0  0  0  0  0  0  0  0  0
    3.1160   11.8810    6.6490 C   0  0  0  0  0  0  0  0  0  0  0  0
    2.0410   11.4130    7.3130 N   0  0  0  0  0  0  0  0  0  0  0  0
    1.5100   10.1570    6.9920 C   0  0  0  0  0  0  0  0  0  0  0  0
    0.1350    9.9720    6.9590 C   0  0  0  0  0  0  0  0  0  0  0  0
   -0.3880    8.7330    6.6430 C   0  0  0  0  0  0  0  0  0  0  0  0
    0.4620    7.6740    6.3570 C   0  0  0  0  0  0  0  0  0  0  0  0
   -0.0530    6.4550    6.0450 O   0  0  0  0  0  0  0  0  0  0  0  0
   -1.3180    6.6880    5.4230 C   0  0  0  0  0  0  0  0  0  0  0  0
    1.8370    7.8590    6.3900 C   0  0  0  0  0  0  0  0  0  0  0  0
    2.3600    9.0980    6.7000 C   0  0  0  0  0  0  0  0  0  0  0  0
    3.5620   11.2620    5.7050 O   0  0  0  0  0  0  0  0  0  0  0  0
    6.2030   13.6720    9.9630 C   0  0  0  0  0  0  0  0  0  0  0  0
    7.1520   14.8630   10.1170 C   0  0  0  0  0  0  0  0  0  0  0  0
    8.4030   14.4230   10.8790 C   0  0  0  0  0  0  0  0  0  0  0  0
    9.3330   15.6230   11.0690 C   0  0  0  0  0  0  0  0  0  0  0  0
    7.9990   13.8700   12.2470 C   0  0  0  0  0  0  0  0  0  0  0  0
    5.4560   13.4800   11.2090 N   0  0  0  0  0  0  0  0  0  0  0  0
    4.7110   14.4560   11.7890 C   0  0  0  0  0  0  0  0  0  0  0  0
    4.3770   13.9660   13.1650 C   0  0  0  0  0  0  0  0  0  0  0  0
    3.0230   14.3220   13.7440 C   0  0  0  0  0  0  0  0  0  0  0  0
    2.8120   13.4310   14.9500 C   0  0  0  0  0  0  0  0  0  0  0  0
    3.4740   12.3370   15.1780 C   0  0  0  0  0  0  0  0  0  0  0  0
    4.5370   11.7740   14.2580 C   0  0  0  0  0  0  0  0  0  0  0  0
    4.3420   12.4280   12.9070 C   0  0  0  0  0  0  0  0  0  0  0  0
    5.4360   12.3060   11.8920 C   0  0  0  0  0  0  0  0  0  0  0  0
    6.1620   11.3510   11.7160 O   0  0  0  0  0  0  0  0  0  0  0  0
    4.3830   15.5130   11.2930 O   0  0  0  0  0  0  0  0  0  0  0  0
    2.9950   13.8760    7.3960 H   0  0  0  0  0  0  0  0  0  0  0  0
    4.3200   13.5950    6.2410 H   0  0  0  0  0  0  0  0  0  0  0  0
    1.6350   11.9460    8.0140 H   0  0  0  0  0  0  0  0  0  0  0  0
   -0.5270   10.7960    7.1820 H   0  0  0  0  0  0  0  0  0  0  0  0
   -1.4580    8.5890    6.6180 H   0  0  0  0  0  0  0  0  0  0  0  0
   -1.7720    5.7340    5.1530 H   0  0  0  0  0  0  0  0  0  0  0  0
   -1.9720    7.2180    6.1160 H   0  0  0  0  0  0  0  0  0  0  0  0
   -1.1770    7.2900    4.5250 H   0  0  0  0  0  0  0  0  0  0  0  0
    2.4970    7.0340    6.1670 H   0  0  0  0  0  0  0  0  0  0  0  0
    3.4300    9.2420    6.7250 H   0  0  0  0  0  0  0  0  0  0  0  0
    6.7800   12.7740    9.7430 H   0  0  0  0  0  0  0  0  0  0  0  0
    7.4370   15.2300    9.1310 H   0  0  0  0  0  0  0  0  0  0  0  0
    6.6510   15.6580   10.6690 H   0  0  0  0  0  0  0  0  0  0  0  0
    8.9210   13.6490   10.3130 H   0  0  0  0  0  0  0  0  0  0  0  0
    8.8160   16.3980   11.6350 H   0  0  0  0  0  0  0  0  0  0  0  0
   10.2250   15.3100   11.6120 H   0  0  0  0  0  0  0  0  0  0  0  0
    9.6210   16.0170   10.0940 H   0  0  0  0  0  0  0  0  0  0  0  0
    7.4090   14.6150   12.7810 H   0  0  0  0  0  0  0  0  0  0  0  0
    7.4060   12.9660   12.1130 H   0  0  0  0  0  0  0  0  0  0  0  0
    8.8940   13.6350   12.8230 H   0  0  0  0  0  0  0  0  0  0  0  0
    5.1690   14.2300   13.8650 H   0  0  0  0  0  0  0  0  0  0  0  0
    3.0120   15.3690   14.0480 H   0  0  0  0  0  0  0  0  0  0  0  0
    2.2430   14.1390   13.0050 H   0  0  0  0  0  0  0  0  0  0  0  0
    2.0620   13.7250   15.6690 H   0  0  0  0  0  0  0  0  0  0  0  0
    3.2510   11.7920   16.0830 H   0  0  0  0  0  0  0  0  0  0  0  0
    5.5280   12.0100   14.6460 H   0  0  0  0  0  0  0  0  0  0  0  0
    4.4190   10.6940   14.1690 H   0  0  0  0  0  0  0  0  0  0  0  0
    3.3830   12.1340   12.4790 H   0  0  0  0  0  0  0  0  0  0  0  0
  1  2  2  0  0  0  0
  2  3  1  0  0  0  0
  3  4  1  0  0  0  0
  4 32  1  0  0  0  0
  4 33  1  0  0  0  0
  4  5  1  0  0  0  0
  5  6  1  0  0  0  0
  6 34  1  0  0  0  0
  6  7  1  0  0  0  0
  7  8  2  0  0  0  0
  8 35  1  0  0  0  0
  8  9  1  0  0  0  0
  9 36  1  0  0  0  0
  9 10  2  0  0  0  0
 10 11  1  0  0  0  0
 11 12  1  0  0  0  0
 12 37  1  0  0  0  0
 12 38  1  0  0  0  0
 12 39  1  0  0  0  0
 10 13  1  0  0  0  0
 13 40  1  0  0  0  0
 13 14  2  0  0  0  0
 14  7  1  0  0  0  0
 14 41  1  0  0  0  0
  5 15  2  0  0  0  0
  2 16  1  0  0  0  0
 16 42  1  0  0  0  0
 16 17  1  0  0  0  0
 17 43  1  0  0  0  0
 17 44  1  0  0  0  0
 17 18  1  0  0  0  0
 18 45  1  0  0  0  0
 18 19  1  0  0  0  0
 19 46  1  0  0  0  0
 19 47  1  0  0  0  0
 19 48  1  0  0  0  0
 18 20  1  0  0  0  0
 20 49  1  0  0  0  0
 20 50  1  0  0  0  0
 20 51  1  0  0  0  0
 16 21  1  0  0  0  0
 21 22  1  0  0  0  0
 22 23  1  0  0  0  0
 23 52  1  0  0  0  0
 23 24  1  0  0  0  0
 24 53  1  0  0  0  0
 24 54  1  0  0  0  0
 24 25  1  0  0  0  0
 25 55  1  0  0  0  0
 25 26  2  0  0  0  0
 26 56  1  0  0  0  0
 26 27  1  0  0  0  0
 27 57  1  0  0  0  0
 27 58  1  0  0  0  0
 27 28  1  0  0  0  0
 28 23  1  0  0  0  0
 28 59  1  0  0  0  0
 28 29  1  0  0  0  0
 29 21  1  0  0  0  0
 29 30  2  0  0  0  0
 22 31  2  0  0  0  0
M  END
>  <EXTREG>  (16)
16

>  <pIC50>  (16)
4.4841

>  <COMFA_1>  (16)
174.0000

>  <CoMFA_2__1>  (16)
4.4592

$$$$
17
  -MTS-   04202218243D 0   0.00000     0.00000     0

 33 34  0  0  0  0  0  0  0  0999 V2000
    2.5810   11.5740    5.5130 O   0  0  0  0  0  0  0  0  0  0  0  0
    2.3450   11.8350    6.6760 C   0  0  0  0  0  0  0  0  0  0  0  0
    2.2080   13.1180    7.0640 N   0  0  0  0  0  0  0  0  0  0  0  0
    2.5710   14.2340    6.3460 C   0  0  0  0  0  0  0  0  0  0  0  0
    2.2590   15.3010    7.1020 C   0  0  0  0  0  0  0  0  0  0  0  0
    1.7200   14.8610    8.2510 N   0  0  0  0  0  0  0  0  0  0  0  0
    1.6790   13.5590    8.2400 C   0  0  0  0  0  0  0  0  0  0  0  0
    2.2140   10.8410    7.5760 N   0  0  0  0  0  0  0  0  0  0  0  0
    2.3570    9.4460    7.1530 C   0  0  0  0  0  0  0  0  0  0  0  0
    0.9820    8.8790    6.7940 C   0  0  0  0  0  0  0  0  0  0  0  0
    1.1230    7.5230    6.3660 O   0  0  0  0  0  0  0  0  0  0  0  0
   -0.0550    7.1690    5.7880 C   0  0  0  0  0  0  0  0  0  0  0  0
   -0.0750    6.2210    4.7760 C   0  0  0  0  0  0  0  0  0  0  0  0
   -1.2750    5.8630    4.1910 C   0  0  0  0  0  0  0  0  0  0  0  0
   -1.2980    4.8330    3.0910 C   0  0  0  0  0  0  0  0  0  0  0  0
   -2.4540    6.4480    4.6130 C   0  0  0  0  0  0  0  0  0  0  0  0
   -2.4360    7.3930    5.6220 C   0  0  0  0  0  0  0  0  0  0  0  0
   -1.2400    7.7500    6.2150 C   0  0  0  0  0  0  0  0  0  0  0  0
    3.0210   14.2500    5.3640 H   0  0  0  0  0  0  0  0  0  0  0  0
    2.4160   16.3350    6.8320 H   0  0  0  0  0  0  0  0  0  0  0  0
    1.2950   12.9330    9.0320 H   0  0  0  0  0  0  0  0  0  0  0  0
    2.0260   11.0500    8.5050 H   0  0  0  0  0  0  0  0  0  0  0  0
    3.0100    9.3950    6.2820 H   0  0  0  0  0  0  0  0  0  0  0  0
    2.7900    8.8620    7.9660 H   0  0  0  0  0  0  0  0  0  0  0  0
    0.3330    8.9180    7.6690 H   0  0  0  0  0  0  0  0  0  0  0  0
    0.5440    9.4700    5.9900 H   0  0  0  0  0  0  0  0  0  0  0  0
    0.8450    5.7640    4.4450 H   0  0  0  0  0  0  0  0  0  0  0  0
   -1.4220    3.8410    3.5250 H   0  0  0  0  0  0  0  0  0  0  0  0
   -2.1270    5.0410    2.4150 H   0  0  0  0  0  0  0  0  0  0  0  0
   -0.3600    4.8720    2.5370 H   0  0  0  0  0  0  0  0  0  0  0  0
   -3.3900    6.1670    4.1540 H   0  0  0  0  0  0  0  0  0  0  0  0
   -3.3580    7.8490    5.9500 H   0  0  0  0  0  0  0  0  0  0  0  0
   -1.2270    8.4890    7.0030 H   0  0  0  0  0  0  0  0  0  0  0  0
  1  2  2  0  0  0  0
  2  3  1  0  0  0  0
  3  4  1  0  0  0  0
  4 19  1  0  0  0  0
  4  5  2  0  0  0  0
  5 20  1  0  0  0  0
  5  6  1  0  0  0  0
  6  7  2  0  0  0  0
  7  3  1  0  0  0  0
  7 21  1  0  0  0  0
  2  8  1  0  0  0  0
  8 22  1  0  0  0  0
  8  9  1  0  0  0  0
  9 23  1  0  0  0  0
  9 24  1  0  0  0  0
  9 10  1  0  0  0  0
 10 25  1  0  0  0  0
 10 26  1  0  0  0  0
 10 11  1  0  0  0  0
 11 12  1  0  0  0  0
 12 13  2  0  0  0  0
 13 27  1  0  0  0  0
 13 14  1  0  0  0  0
 14 15  1  0  0  0  0
 15 28  1  0  0  0  0
 15 29  1  0  0  0  0
 15 30  1  0  0  0  0
 14 16  2  0  0  0  0
 16 31  1  0  0  0  0
 16 17  1  0  0  0  0
 17 32  1  0  0  0  0
 17 18  2  0  0  0  0
 18 12  1  0  0  0  0
 18 33  1  0  0  0  0
M  END
>  <EXTREG>  (17)
17

>  <pIC50>  (17)
6.0000

>  <COMFA_1>  (17)
106.0000

>  <CoMFA_2__1>  (17)
6.1824

$$$$
19
  -MTS-   04202218243D 0   0.00000     0.00000     0

 30 31  0  0  0  0  0  0  0  0999 V2000
    2.7200   11.7510    5.5190 O   0  0  0  0  0  0  0  0  0  0  0  0
    2.4360   12.0220    6.6680 C   0  0  0  0  0  0  0  0  0  0  0  0
    2.3180   13.3100    7.0480 N   0  0  0  0  0  0  0  0  0  0  0  0
    1.8990   13.7670    8.2750 C   0  0  0  0  0  0  0  0  0  0  0  0
    1.9310   15.1100    8.2210 C   0  0  0  0  0  0  0  0  0  0  0  0
    2.3570   15.4740    7.0010 N   0  0  0  0  0  0  0  0  0  0  0  0
    2.5970   14.4080    6.2900 C   0  0  0  0  0  0  0  0  0  0  0  0
    2.2340   11.0350    7.5630 N   0  0  0  0  0  0  0  0  0  0  0  0
    2.3570    9.6350    7.1500 C   0  0  0  0  0  0  0  0  0  0  0  0
    0.9880    8.9560    7.2360 C   0  0  0  0  0  0  0  0  0  0  0  0
    1.0970    7.6050    6.7840 O   0  0  0  0  0  0  0  0  0  0  0  0
   -0.0800    7.2960    6.1800 C   0  0  0  0  0  0  0  0  0  0  0  0
   -0.1100    6.3710    5.1470 C   0  0  0  0  0  0  0  0  0  0  0  0
   -1.3100    6.0590    4.5350 C   0  0  0  0  0  0  0  0  0  0  0  0
   -1.3490    4.9010    3.2420 Cl  0  0  0  0  0  0  0  0  0  0  0  0
   -2.4790    6.6690    4.9520 C   0  0  0  0  0  0  0  0  0  0  0  0
   -2.4510    7.5910    5.9820 C   0  0  0  0  0  0  0  0  0  0  0  0
   -1.2560    7.9020    6.6010 C   0  0  0  0  0  0  0  0  0  0  0  0
    1.6010   13.1630    9.1190 H   0  0  0  0  0  0  0  0  0  0  0  0
    1.6610   15.7820    9.0230 H   0  0  0  0  0  0  0  0  0  0  0  0
    2.9510   14.3970    5.2690 H   0  0  0  0  0  0  0  0  0  0  0  0
    2.0070   11.2520    8.4810 H   0  0  0  0  0  0  0  0  0  0  0  0
    2.7200    9.5900    6.1230 H   0  0  0  0  0  0  0  0  0  0  0  0
    3.0590    9.1220    7.8070 H   0  0  0  0  0  0  0  0  0  0  0  0
    0.6420    8.9660    8.2700 H   0  0  0  0  0  0  0  0  0  0  0  0
    0.2760    9.4920    6.6090 H   0  0  0  0  0  0  0  0  0  0  0  0
    0.8030    5.8960    4.8210 H   0  0  0  0  0  0  0  0  0  0  0  0
   -3.4160    6.4250    4.4730 H   0  0  0  0  0  0  0  0  0  0  0  0
   -3.3660    8.0660    6.3060 H   0  0  0  0  0  0  0  0  0  0  0  0
   -1.2350    8.6220    7.4050 H   0  0  0  0  0  0  0  0  0  0  0  0
  1  2  2  0  0  0  0
  2  3  1  0  0  0  0
  3  4  1  0  0  0  0
  4 19  1  0  0  0  0
  4  5  2  0  0  0  0
  5 20  1  0  0  0  0
  5  6  1  0  0  0  0
  6  7  2  0  0  0  0
  7  3  1  0  0  0  0
  7 21  1  0  0  0  0
  2  8  1  0  0  0  0
  8 22  1  0  0  0  0
  8  9  1  0  0  0  0
  9 23  1  0  0  0  0
  9 24  1  0  0  0  0
  9 10  1  0  0  0  0
 10 25  1  0  0  0  0
 10 26  1  0  0  0  0
 10 11  1  0  0  0  0
 11 12  1  0  0  0  0
 12 13  2  0  0  0  0
 13 27  1  0  0  0  0
 13 14  1  0  0  0  0
 14 15  1  0  0  0  0
 14 16  2  0  0  0  0
 16 28  1  0  0  0  0
 16 17  1  0  0  0  0
 17 29  1  0  0  0  0
 17 18  2  0  0  0  0
 18 12  1  0  0  0  0
 18 30  1  0  0  0  0
M  END
>  <EXTREG>  (19)
19

>  <pIC50>  (19)
6.2441

>  <COMFA_1>  (19)
94.0000

>  <CoMFA_2__1>  (19)
6.1236

$$$$
20
  -MTS-   04202218243D 0   0.00000     0.00000     0

 30 31  0  0  0  0  0  0  0  0999 V2000
    2.7540   11.8300    5.5260 O   0  0  0  0  0  0  0  0  0  0  0  0
    2.4550   12.1010    6.6720 C   0  0  0  0  0  0  0  0  0  0  0  0
    2.3000   13.3870    7.0420 N   0  0  0  0  0  0  0  0  0  0  0  0
    2.4510   14.4930    6.2400 C   0  0  0  0  0  0  0  0  0  0  0  0
    2.2040   15.5680    7.0090 C   0  0  0  0  0  0  0  0  0  0  0  0
    1.9100   15.1420    8.2480 N   0  0  0  0  0  0  0  0  0  0  0  0
    1.9570   13.8400    8.2810 C   0  0  0  0  0  0  0  0  0  0  0  0
    2.2730   11.1140    7.5720 N   0  0  0  0  0  0  0  0  0  0  0  0
    2.4350    9.7150    7.1680 C   0  0  0  0  0  0  0  0  0  0  0  0
    1.0630    9.0400    7.1050 C   0  0  0  0  0  0  0  0  0  0  0  0
    1.2100    7.7090    6.6050 O   0  0  0  0  0  0  0  0  0  0  0  0
    0.0120    7.3570    6.0670 C   0  0  0  0  0  0  0  0  0  0  0  0
   -0.0380    6.4600    5.0120 C   0  0  0  0  0  0  0  0  0  0  0  0
   -1.2580    6.1030    4.4670 C   0  0  0  0  0  0  0  0  0  0  0  0
   -1.3290    4.8790    3.0280 Br  0  0  0  0  0  0  0  0  0  0  0  0
   -2.4270    6.6410    4.9750 C   0  0  0  0  0  0  0  0  0  0  0  0
   -2.3780    7.5370    6.0280 C   0  0  0  0  0  0  0  0  0  0  0  0
   -1.1620    7.8910    6.5780 C   0  0  0  0  0  0  0  0  0  0  0  0
    2.7180   14.4980    5.1930 H   0  0  0  0  0  0  0  0  0  0  0  0
    2.2380   16.5980    6.6860 H   0  0  0  0  0  0  0  0  0  0  0  0
    1.7650   13.2230    9.1470 H   0  0  0  0  0  0  0  0  0  0  0  0
    2.0340   11.3300    8.4870 H   0  0  0  0  0  0  0  0  0  0  0  0
    2.9060    9.6730    6.1860 H   0  0  0  0  0  0  0  0  0  0  0  0
    3.0610    9.1970    7.8950 H   0  0  0  0  0  0  0  0  0  0  0  0
    0.6280    9.0070    8.1040 H   0  0  0  0  0  0  0  0  0  0  0  0
    0.4100    9.6070    6.4420 H   0  0  0  0  0  0  0  0  0  0  0  0
    0.8740    6.0400    4.6150 H   0  0  0  0  0  0  0  0  0  0  0  0
   -3.3790    6.3610    4.5490 H   0  0  0  0  0  0  0  0  0  0  0  0
   -3.2920    7.9560    6.4220 H   0  0  0  0  0  0  0  0  0  0  0  0
   -1.1250    8.5910    7.4000 H   0  0  0  0  0  0  0  0  0  0  0  0
  1  2  2  0  0  0  0
  2  3  1  0  0  0  0
  3  4  1  0  0  0  0
  4 19  1  0  0  0  0
  4  5  2  0  0  0  0
  5 20  1  0  0  0  0
  5  6  1  0  0  0  0
  6  7  2  0  0  0  0
  7  3  1  0  0  0  0
  7 21  1  0  0  0  0
  2  8  1  0  0  0  0
  8 22  1  0  0  0  0
  8  9  1  0  0  0  0
  9 23  1  0  0  0  0
  9 24  1  0  0  0  0
  9 10  1  0  0  0  0
 10 25  1  0  0  0  0
 10 26  1  0  0  0  0
 10 11  1  0  0  0  0
 11 12  1  0  0  0  0
 12 13  2  0  0  0  0
 13 27  1  0  0  0  0
 13 14  1  0  0  0  0
 14 15  1  0  0  0  0
 14 16  2  0  0  0  0
 16 28  1  0  0  0  0
 16 17  1  0  0  0  0
 17 29  1  0  0  0  0
 17 18  2  0  0  0  0
 18 12  1  0  0  0  0
 18 30  1  0  0  0  0
M  END
>  <EXTREG>  (20)
20

>  <pIC50>  (20)
6.3872

>  <COMFA_1>  (20)
94.0000

>  <CoMFA_2__1>  (20)
6.2156

$$$$
22
  -MTS-   04202218243D 0   0.00000     0.00000     0

 34 35  0  0  0  0  0  0  0  0999 V2000
    3.2950   11.9420    5.6500 O   0  0  0  0  0  0  0  0  0  0  0  0
    3.2420   11.9520    6.8640 C   0  0  0  0  0  0  0  0  0  0  0  0
    4.0260   12.7940    7.5660 N   0  0  0  0  0  0  0  0  0  0  0  0
    4.6360   13.9320    7.0910 C   0  0  0  0  0  0  0  0  0  0  0  0
    5.3160   14.4660    8.1210 C   0  0  0  0  0  0  0  0  0  0  0  0
    5.1330   13.6850    9.1980 N   0  0  0  0  0  0  0  0  0  0  0  0
    4.3600   12.6850    8.8830 C   0  0  0  0  0  0  0  0  0  0  0  0
    2.3970   11.1230    7.5080 N   0  0  0  0  0  0  0  0  0  0  0  0
    1.5410   10.2110    6.7450 C   0  0  0  0  0  0  0  0  0  0  0  0
    1.5560    8.8290    7.4010 C   0  0  0  0  0  0  0  0  0  0  0  0
    0.2820    8.5700    7.9950 O   0  0  0  0  0  0  0  0  0  0  0  0
   -0.4790    7.9670    7.0450 C   0  0  0  0  0  0  0  0  0  0  0  0
    0.1200    7.1830    6.0710 C   0  0  0  0  0  0  0  0  0  0  0  0
   -0.6600    6.5680    5.1030 C   0  0  0  0  0  0  0  0  0  0  0  0
   -0.0760    5.7990    4.1470 O   0  0  0  0  0  0  0  0  0  0  0  0
   -1.0370    4.8120    3.7660 C   0  0  0  0  0  0  0  0  0  0  0  0
   -2.0370    6.7390    5.1110 C   0  0  0  0  0  0  0  0  0  0  0  0
   -2.6310    7.5210    6.0830 C   0  0  0  0  0  0  0  0  0  0  0  0
   -1.8570    8.1300    7.0520 C   0  0  0  0  0  0  0  0  0  0  0  0
    4.5790   14.3210    6.0850 H   0  0  0  0  0  0  0  0  0  0  0  0
    5.9080   15.3690    8.0870 H   0  0  0  0  0  0  0  0  0  0  0  0
    4.0430   11.8980    9.5500 H   0  0  0  0  0  0  0  0  0  0  0  0
    2.3550   11.1310    8.4770 H   0  0  0  0  0  0  0  0  0  0  0  0
    0.5210   10.5960    6.7320 H   0  0  0  0  0  0  0  0  0  0  0  0
    1.9130   10.1330    5.7240 H   0  0  0  0  0  0  0  0  0  0  0  0
    1.7660    8.0710    6.6460 H   0  0  0  0  0  0  0  0  0  0  0  0
    2.3280    8.8000    8.1690 H   0  0  0  0  0  0  0  0  0  0  0  0
    1.1920    7.0520    6.0650 H   0  0  0  0  0  0  0  0  0  0  0  0
   -0.6110    4.1680    2.9970 H   0  0  0  0  0  0  0  0  0  0  0  0
   -1.3050    4.2120    4.6360 H   0  0  0  0  0  0  0  0  0  0  0  0
   -1.9280    5.3050    3.3760 H   0  0  0  0  0  0  0  0  0  0  0  0
   -2.6440    6.2610    4.3570 H   0  0  0  0  0  0  0  0  0  0  0  0
   -3.7030    7.6530    6.0880 H   0  0  0  0  0  0  0  0  0  0  0  0
   -2.3240    8.7410    7.8110 H   0  0  0  0  0  0  0  0  0  0  0  0
  1  2  2  0  0  0  0
  2  3  1  0  0  0  0
  3  4  1  0  0  0  0
  4 20  1  0  0  0  0
  4  5  2  0  0  0  0
  5 21  1  0  0  0  0
  5  6  1  0  0  0  0
  6  7  2  0  0  0  0
  7  3  1  0  0  0  0
  7 22  1  0  0  0  0
  2  8  1  0  0  0  0
  8 23  1  0  0  0  0
  8  9  1  0  0  0  0
  9 24  1  0  0  0  0
  9 25  1  0  0  0  0
  9 10  1  0  0  0  0
 10 26  1  0  0  0  0
 10 27  1  0  0  0  0
 10 11  1  0  0  0  0
 11 12  1  0  0  0  0
 12 13  2  0  0  0  0
 13 28  1  0  0  0  0
 13 14  1  0  0  0  0
 14 15  1  0  0  0  0
 15 16  1  0  0  0  0
 16 29  1  0  0  0  0
 16 30  1  0  0  0  0
 16 31  1  0  0  0  0
 14 17  2  0  0  0  0
 17 32  1  0  0  0  0
 17 18  1  0  0  0  0
 18 33  1  0  0  0  0
 18 19  2  0  0  0  0
 19 12  1  0  0  0  0
 19 34  1  0  0  0  0
M  END
>  <EXTREG>  (22)
22

>  <pIC50>  (22)
5.6021

>  <COMFA_1>  (22)
102.0000

>  <CoMFA_2__1>  (22)
5.6033

$$$$
26
  -MTS-   04202218243D 0   0.00000     0.00000     0

 30 31  0  0  0  0  0  0  0  0999 V2000
    3.7200   11.2240    5.8240 O   0  0  0  0  0  0  0  0  0  0  0  0
    3.3410   11.5230    6.9390 C   0  0  0  0  0  0  0  0  0  0  0  0
    3.7650   12.6670    7.5110 N   0  0  0  0  0  0  0  0  0  0  0  0
    4.8730   13.3990    7.1540 C   0  0  0  0  0  0  0  0  0  0  0  0
    4.9220   14.4580    7.9810 C   0  0  0  0  0  0  0  0  0  0  0  0
    3.8790   14.3850    8.8230 N   0  0  0  0  0  0  0  0  0  0  0  0
    3.1760   13.3220    8.5500 C   0  0  0  0  0  0  0  0  0  0  0  0
    2.4910   10.7130    7.6010 N   0  0  0  0  0  0  0  0  0  0  0  0
    2.0240    9.4730    6.9760 C   0  0  0  0  0  0  0  0  0  0  0  0
    0.5020    9.3800    7.1010 C   0  0  0  0  0  0  0  0  0  0  0  0
    0.0770    8.0580    6.7650 O   0  0  0  0  0  0  0  0  0  0  0  0
   -1.2370    8.1430    6.4260 C   0  0  0  0  0  0  0  0  0  0  0  0
   -1.7770    7.2530    5.5070 C   0  0  0  0  0  0  0  0  0  0  0  0
   -0.6850    5.9220    4.7250 Br  0  0  0  0  0  0  0  0  0  0  0  0
   -3.1130    7.3420    5.1640 C   0  0  0  0  0  0  0  0  0  0  0  0
   -3.9110    8.3150    5.7360 C   0  0  0  0  0  0  0  0  0  0  0  0
   -3.3750    9.2020    6.6520 C   0  0  0  0  0  0  0  0  0  0  0  0
   -2.0420    9.1140    7.0020 C   0  0  0  0  0  0  0  0  0  0  0  0
    5.5700   13.1670    6.3620 H   0  0  0  0  0  0  0  0  0  0  0  0
    5.6730   15.2350    7.9700 H   0  0  0  0  0  0  0  0  0  0  0  0
    2.2800   13.0090    9.0660 H   0  0  0  0  0  0  0  0  0  0  0  0
    2.1880   10.9520    8.4910 H   0  0  0  0  0  0  0  0  0  0  0  0
    2.3030    9.4690    5.9230 H   0  0  0  0  0  0  0  0  0  0  0  0
    2.4830    8.6200    7.4760 H   0  0  0  0  0  0  0  0  0  0  0  0
    0.2070    9.6070    8.1250 H   0  0  0  0  0  0  0  0  0  0  0  0
    0.0380   10.0950    6.4220 H   0  0  0  0  0  0  0  0  0  0  0  0
   -3.5330    6.6500    4.4490 H   0  0  0  0  0  0  0  0  0  0  0  0
   -4.9550    8.3820    5.4670 H   0  0  0  0  0  0  0  0  0  0  0  0
   -4.0010    9.9610    7.0970 H   0  0  0  0  0  0  0  0  0  0  0  0
   -1.6250    9.8070    7.7170 H   0  0  0  0  0  0  0  0  0  0  0  0
  1  2  2  0  0  0  0
  2  3  1  0  0  0  0
  3  4  1  0  0  0  0
  4 19  1  0  0  0  0
  4  5  2  0  0  0  0
  5 20  1  0  0  0  0
  5  6  1  0  0  0  0
  6  7  2  0  0  0  0
  7  3  1  0  0  0  0
  7 21  1  0  0  0  0
  2  8  1  0  0  0  0
  8 22  1  0  0  0  0
  8  9  1  0  0  0  0
  9 23  1  0  0  0  0
  9 24  1  0  0  0  0
  9 10  1  0  0  0  0
 10 25  1  0  0  0  0
 10 26  1  0  0  0  0
 10 11  1  0  0  0  0
 11 12  1  0  0  0  0
 12 13  2  0  0  0  0
 13 14  1  0  0  0  0
 13 15  1  0  0  0  0
 15 27  1  0  0  0  0
 15 16  2  0  0  0  0
 16 28  1  0  0  0  0
 16 17  1  0  0  0  0
 17 29  1  0  0  0  0
 17 18  2  0  0  0  0
 18 12  1  0  0  0  0
 18 30  1  0  0  0  0
M  END
>  <EXTREG>  (26)
26

>  <pIC50>  (26)
5.5528

>  <COMFA_1>  (26)
100.0000

>  <CoMFA_2__1>  (26)
5.7621

$$$$
27
  -MTS-   04202218243D 0   0.00000     0.00000     0

 30 31  0  0  0  0  0  0  0  0999 V2000
    3.7920   11.1470    5.8540 O   0  0  0  0  0  0  0  0  0  0  0  0
    3.4040   11.5440    6.9340 C   0  0  0  0  0  0  0  0  0  0  0  0
    3.7700   12.7630    7.3760 N   0  0  0  0  0  0  0  0  0  0  0  0
    4.8310   13.5120    6.9250 C   0  0  0  0  0  0  0  0  0  0  0  0
    4.8310   14.6540    7.6350 C   0  0  0  0  0  0  0  0  0  0  0  0
    3.8030   14.6140    8.4980 N   0  0  0  0  0  0  0  0  0  0  0  0
    3.1570   13.4920    8.3510 C   0  0  0  0  0  0  0  0  0  0  0  0
    2.6020   10.7670    7.6890 N   0  0  0  0  0  0  0  0  0  0  0  0
    2.1990    9.4440    7.2070 C   0  0  0  0  0  0  0  0  0  0  0  0
    0.6720    9.3690    7.1400 C   0  0  0  0  0  0  0  0  0  0  0  0
    0.2680    8.0070    6.9810 O   0  0  0  0  0  0  0  0  0  0  0  0
   -1.0400    8.0260    6.6120 C   0  0  0  0  0  0  0  0  0  0  0  0
   -1.5520    7.0110    5.8170 C   0  0  0  0  0  0  0  0  0  0  0  0
   -2.8810    7.0320    5.4440 C   0  0  0  0  0  0  0  0  0  0  0  0
   -3.7020    8.0640    5.8620 C   0  0  0  0  0  0  0  0  0  0  0  0
   -5.5220    8.0890    5.3480 Br  0  0  0  0  0  0  0  0  0  0  0  0
   -3.1940    9.0770    6.6540 C   0  0  0  0  0  0  0  0  0  0  0  0
   -1.8660    9.0570    7.0350 C   0  0  0  0  0  0  0  0  0  0  0  0
    5.5310   13.2370    6.1490 H   0  0  0  0  0  0  0  0  0  0  0  0
    5.5360   15.4650    7.5290 H   0  0  0  0  0  0  0  0  0  0  0  0
    2.2860   13.1870    8.9120 H   0  0  0  0  0  0  0  0  0  0  0  0
    2.2920   11.0840    8.5520 H   0  0  0  0  0  0  0  0  0  0  0  0
    2.6150    9.2770    6.2130 H   0  0  0  0  0  0  0  0  0  0  0  0
    2.5700    8.6790    7.8890 H   0  0  0  0  0  0  0  0  0  0  0  0
    0.2480    9.7690    8.0600 H   0  0  0  0  0  0  0  0  0  0  0  0
    0.3170    9.9540    6.2920 H   0  0  0  0  0  0  0  0  0  0  0  0
   -0.9110    6.2050    5.4900 H   0  0  0  0  0  0  0  0  0  0  0  0
   -3.2800    6.2420    4.8240 H   0  0  0  0  0  0  0  0  0  0  0  0
   -3.8370    9.8820    6.9800 H   0  0  0  0  0  0  0  0  0  0  0  0
   -1.4700    9.8480    7.6550 H   0  0  0  0  0  0  0  0  0  0  0  0
  1  2  2  0  0  0  0
  2  3  1  0  0  0  0
  3  4  1  0  0  0  0
  4 19  1  0  0  0  0
  4  5  2  0  0  0  0
  5 20  1  0  0  0  0
  5  6  1  0  0  0  0
  6  7  2  0  0  0  0
  7  3  1  0  0  0  0
  7 21  1  0  0  0  0
  2  8  1  0  0  0  0
  8 22  1  0  0  0  0
  8  9  1  0  0  0  0
  9 23  1  0  0  0  0
  9 24  1  0  0  0  0
  9 10  1  0  0  0  0
 10 25  1  0  0  0  0
 10 26  1  0  0  0  0
 10 11  1  0  0  0  0
 11 12  1  0  0  0  0
 12 13  2  0  0  0  0
 13 27  1  0  0  0  0
 13 14  1  0  0  0  0
 14 28  1  0  0  0  0
 14 15  2  0  0  0  0
 15 16  1  0  0  0  0
 15 17  1  0  0  0  0
 17 29  1  0  0  0  0
 17 18  2  0  0  0  0
 18 12  1  0  0  0  0
 18 30  1  0  0  0  0
M  END
>  <EXTREG>  (27)
27

>  <pIC50>  (27)
5.5086

>  <COMFA_1>  (27)
100.0000

>  <CoMFA_2__1>  (27)
5.4924

$$$$
28
  -MTS-   04202218243D 0   0.00000     0.00000     0

 33 34  0  0  0  0  0  0  0  0999 V2000
    7.0160   12.1000   10.0790 O   0  0  0  0  0  0  0  0  0  0  0  0
    5.9000   12.3850   10.4660 C   0  0  0  0  0  0  0  0  0  0  0  0
    5.6160   12.3570   11.7830 N   0  0  0  0  0  0  0  0  0  0  0  0
    4.3750   12.5030   12.3560 C   0  0  0  0  0  0  0  0  0  0  0  0
    4.5470   12.4090   13.6870 C   0  0  0  0  0  0  0  0  0  0  0  0
    5.8530   12.2120   13.9300 N   0  0  0  0  0  0  0  0  0  0  0  0
    6.5040   12.1730   12.8010 C   0  0  0  0  0  0  0  0  0  0  0  0
    4.9470   12.7340    9.5790 N   0  0  0  0  0  0  0  0  0  0  0  0
    5.2580   12.7700    8.1470 C   0  0  0  0  0  0  0  0  0  0  0  0
    3.9760   12.5470    7.3420 C   0  0  0  0  0  0  0  0  0  0  0  0
    4.0810   11.3250    6.6090 O   0  0  0  0  0  0  0  0  0  0  0  0
    2.8840   10.6910    6.7290 C   0  0  0  0  0  0  0  0  0  0  0  0
    2.8250    9.3050    6.6950 C   0  0  0  0  0  0  0  0  0  0  0  0
    1.6080    8.6640    6.8180 C   0  0  0  0  0  0  0  0  0  0  0  0
    0.4490    9.4010    6.9740 C   0  0  0  0  0  0  0  0  0  0  0  0
   -0.8770    8.6990    7.1070 C   0  0  0  0  0  0  0  0  0  0  0  0
   -1.9120    9.6030    6.8460 F   0  0  0  0  0  0  0  0  0  0  0  0
   -0.9400    7.6430    6.1920 F   0  0  0  0  0  0  0  0  0  0  0  0
   -1.0120    8.1980    8.4060 F   0  0  0  0  0  0  0  0  0  0  0  0
    0.5050   10.7830    7.0080 C   0  0  0  0  0  0  0  0  0  0  0  0
    1.7210   11.4290    6.8920 C   0  0  0  0  0  0  0  0  0  0  0  0
    3.4410   12.6620   11.8380 H   0  0  0  0  0  0  0  0  0  0  0  0
    3.7690   12.4810   14.4320 H   0  0  0  0  0  0  0  0  0  0  0  0
    7.5680   12.0270   12.6910 H   0  0  0  0  0  0  0  0  0  0  0  0
    4.0560   12.9610    9.8870 H   0  0  0  0  0  0  0  0  0  0  0  0
    5.6830   13.7400    7.8920 H   0  0  0  0  0  0  0  0  0  0  0  0
    5.9760   11.9850    7.9110 H   0  0  0  0  0  0  0  0  0  0  0  0
    3.1250   12.4920    8.0210 H   0  0  0  0  0  0  0  0  0  0  0  0
    3.8340   13.3760    6.6480 H   0  0  0  0  0  0  0  0  0  0  0  0
    3.7310    8.7290    6.5730 H   0  0  0  0  0  0  0  0  0  0  0  0
    1.5620    7.5850    6.7910 H   0  0  0  0  0  0  0  0  0  0  0  0
   -0.4010   11.3560    7.1300 H   0  0  0  0  0  0  0  0  0  0  0  0
    1.7640   12.5080    6.9190 H   0  0  0  0  0  0  0  0  0  0  0  0
  1  2  2  0  0  0  0
  2  3  1  0  0  0  0
  3  4  1  0  0  0  0
  4 22  1  0  0  0  0
  4  5  2  0  0  0  0
  5 23  1  0  0  0  0
  5  6  1  0  0  0  0
  6  7  2  0  0  0  0
  7  3  1  0  0  0  0
  7 24  1  0  0  0  0
  2  8  1  0  0  0  0
  8 25  1  0  0  0  0
  8  9  1  0  0  0  0
  9 26  1  0  0  0  0
  9 27  1  0  0  0  0
  9 10  1  0  0  0  0
 10 28  1  0  0  0  0
 10 29  1  0  0  0  0
 10 11  1  0  0  0  0
 11 12  1  0  0  0  0
 12 13  2  0  0  0  0
 13 30  1  0  0  0  0
 13 14  1  0  0  0  0
 14 31  1  0  0  0  0
 14 15  2  0  0  0  0
 15 16  1  0  0  0  0
 16 17  1  0  0  0  0
 16 18  1  0  0  0  0
 16 19  1  0  0  0  0
 15 20  1  0  0  0  0
 20 32  1  0  0  0  0
 20 21  2  0  0  0  0
 21 12  1  0  0  0  0
 21 33  1  0  0  0  0
M  END
>  <EXTREG>  (28)
28

>  <pIC50>  (28)
6.2218

>  <COMFA_1>  (28)
104.0000

>  <CoMFA_2__1>  (28)
6.2281

$$$$
29
  -MTS-   04202218243D 0   0.00000     0.00000     0

 30 31  0  0  0  0  0  0  0  0999 V2000
    3.6870   11.4120    5.7650 O   0  0  0  0  0  0  0  0  0  0  0  0
    3.3830   11.6990    6.9050 C   0  0  0  0  0  0  0  0  0  0  0  0
    3.8430   12.8390    7.4590 N   0  0  0  0  0  0  0  0  0  0  0  0
    4.9080   13.5900    7.0200 C   0  0  0  0  0  0  0  0  0  0  0  0
    5.0180   14.6350    7.8580 C   0  0  0  0  0  0  0  0  0  0  0  0
    4.0530   14.5350    8.7860 N   0  0  0  0  0  0  0  0  0  0  0  0
    3.3390   13.4690    8.5570 C   0  0  0  0  0  0  0  0  0  0  0  0
    2.5800   10.8820    7.6150 N   0  0  0  0  0  0  0  0  0  0  0  0
    2.0740    9.6470    7.0110 C   0  0  0  0  0  0  0  0  0  0  0  0
    0.5530    9.5910    7.1620 C   0  0  0  0  0  0  0  0  0  0  0  0
    0.1320    8.2270    7.2440 O   0  0  0  0  0  0  0  0  0  0  0  0
   -1.1700    8.1940    6.8570 C   0  0  0  0  0  0  0  0  0  0  0  0
   -1.9860    9.2950    7.0700 C   0  0  0  0  0  0  0  0  0  0  0  0
   -3.3110    9.2600    6.6760 C   0  0  0  0  0  0  0  0  0  0  0  0
   -4.1060   10.3330    6.8820 F   0  0  0  0  0  0  0  0  0  0  0  0
   -3.8230    8.1230    6.0680 C   0  0  0  0  0  0  0  0  0  0  0  0
   -5.1180    8.0890    5.6830 F   0  0  0  0  0  0  0  0  0  0  0  0
   -3.0090    7.0240    5.8560 C   0  0  0  0  0  0  0  0  0  0  0  0
   -1.6840    7.0600    6.2440 C   0  0  0  0  0  0  0  0  0  0  0  0
    5.5360   13.3800    6.1670 H   0  0  0  0  0  0  0  0  0  0  0  0
    5.7560   15.4210    7.7960 H   0  0  0  0  0  0  0  0  0  0  0  0
    2.4950   13.1370    9.1430 H   0  0  0  0  0  0  0  0  0  0  0  0
    2.3370   11.1110    8.5250 H   0  0  0  0  0  0  0  0  0  0  0  0
    2.3350    9.6260    5.9530 H   0  0  0  0  0  0  0  0  0  0  0  0
    2.5210    8.7880    7.5120 H   0  0  0  0  0  0  0  0  0  0  0  0
    0.2590   10.1170    8.0700 H   0  0  0  0  0  0  0  0  0  0  0  0
    0.0840   10.0640    6.3000 H   0  0  0  0  0  0  0  0  0  0  0  0
   -1.5860   10.1800    7.5430 H   0  0  0  0  0  0  0  0  0  0  0  0
   -3.4090    6.1400    5.3840 H   0  0  0  0  0  0  0  0  0  0  0  0
   -1.0490    6.2020    6.0780 H   0  0  0  0  0  0  0  0  0  0  0  0
  1  2  2  0  0  0  0
  2  3  1  0  0  0  0
  3  4  1  0  0  0  0
  4 20  1  0  0  0  0
  4  5  2  0  0  0  0
  5 21  1  0  0  0  0
  5  6  1  0  0  0  0
  6  7  2  0  0  0  0
  7  3  1  0  0  0  0
  7 22  1  0  0  0  0
  2  8  1  0  0  0  0
  8 23  1  0  0  0  0
  8  9  1  0  0  0  0
  9 24  1  0  0  0  0
  9 25  1  0  0  0  0
  9 10  1  0  0  0  0
 10 26  1  0  0  0  0
 10 27  1  0  0  0  0
 10 11  1  0  0  0  0
 11 12  1  0  0  0  0
 12 13  2  0  0  0  0
 13 28  1  0  0  0  0
 13 14  1  0  0  0  0
 14 15  1  0  0  0  0
 14 16  2  0  0  0  0
 16 17  1  0  0  0  0
 16 18  1  0  0  0  0
 18 29  1  0  0  0  0
 18 19  2  0  0  0  0
 19 12  1  0  0  0  0
 19 30  1  0  0  0  0
M  END
>  <EXTREG>  (29)
29

>  <pIC50>  (29)
5.7447

>  <COMFA_1>  (29)
108.0000

>  <CoMFA_2__1>  (29)
5.6214

$$$$
30
  -MTS-   04202218243D 0   0.00000     0.00000     0

 36 38  0  0  0  0  0  0  0  0999 V2000
    6.2730   12.8860    9.3000 O   0  0  0  0  0  0  0  0  0  0  0  0
    5.2200   12.5670    9.9120 C   0  0  0  0  0  0  0  0  0  0  0  0
    5.2540   12.3390   11.3630 N   0  0  0  0  0  0  0  0  0  0  0  0
    4.1270   12.3250   12.2640 C   0  0  0  0  0  0  0  0  0  0  0  0
    4.6440   12.0800   13.4790 C   0  0  0  0  0  0  0  0  0  0  0  0
    5.9910   11.9480   13.3770 N   0  0  0  0  0  0  0  0  0  0  0  0
    6.3330   12.1050   12.1130 C   0  0  0  0  0  0  0  0  0  0  0  0
    4.0710   12.4350    9.2400 N   0  0  0  0  0  0  0  0  0  0  0  0
    4.0380   12.6630    7.7880 C   0  0  0  0  0  0  0  0  0  0  0  0
    3.3870   11.4520    7.0940 C   0  0  0  0  0  0  0  0  0  0  0  0
    2.0000   11.3940    7.4370 O   0  0  0  0  0  0  0  0  0  0  0  0
    1.4540   10.1440    7.0070 C   0  0  0  0  0  0  0  0  0  0  0  0
    0.0900   10.0430    6.7010 C   0  0  0  0  0  0  0  0  0  0  0  0
   -1.0400   11.5750    6.8600 Br  0  0  0  0  0  0  0  0  0  0  0  0
   -0.4440    8.8180    6.2800 C   0  0  0  0  0  0  0  0  0  0  0  0
    0.3850    7.6950    6.1630 C   0  0  0  0  0  0  0  0  0  0  0  0
   -0.1500    6.4700    5.7410 C   0  0  0  0  0  0  0  0  0  0  0  0
   -1.5140    6.3690    5.4360 C   0  0  0  0  0  0  0  0  0  0  0  0
   -2.3430    7.4920    5.5530 C   0  0  0  0  0  0  0  0  0  0  0  0
   -1.8080    8.7170    5.9740 C   0  0  0  0  0  0  0  0  0  0  0  0
    1.7490    7.7960    6.4680 C   0  0  0  0  0  0  0  0  0  0  0  0
    2.2840    9.0210    6.8900 C   0  0  0  0  0  0  0  0  0  0  0  0
    3.0970   12.4760   12.0150 H   0  0  0  0  0  0  0  0  0  0  0  0
    4.0810   12.0020   14.3860 H   0  0  0  0  0  0  0  0  0  0  0  0
    7.3350   12.0530   11.7410 H   0  0  0  0  0  0  0  0  0  0  0  0
    3.2340   12.1820    9.7260 H   0  0  0  0  0  0  0  0  0  0  0  0
    5.0360   12.7890    7.4240 H   0  0  0  0  0  0  0  0  0  0  0  0
    3.4670   13.5430    7.5780 H   0  0  0  0  0  0  0  0  0  0  0  0
    3.8720   10.5540    7.4150 H   0  0  0  0  0  0  0  0  0  0  0  0
    3.4880   11.5520    6.0330 H   0  0  0  0  0  0  0  0  0  0  0  0
    0.4830    5.6120    5.6520 H   0  0  0  0  0  0  0  0  0  0  0  0
   -1.9220    5.4340    5.1140 H   0  0  0  0  0  0  0  0  0  0  0  0
   -3.3850    7.4150    5.3200 H   0  0  0  0  0  0  0  0  0  0  0  0
   -2.4420    9.5750    6.0630 H   0  0  0  0  0  0  0  0  0  0  0  0
    2.3820    6.9380    6.3790 H   0  0  0  0  0  0  0  0  0  0  0  0
    3.3250    9.0980    7.1230 H   0  0  0  0  0  0  0  0  0  0  0  0
  1  2  2  0  0  0  0
  2  3  1  0  0  0  0
  3  4  1  0  0  0  0
  4 23  1  0  0  0  0
  4  5  2  0  0  0  0
  5 24  1  0  0  0  0
  5  6  1  0  0  0  0
  6  7  2  0  0  0  0
  7  3  1  0  0  0  0
  7 25  1  0  0  0  0
  2  8  1  0  0  0  0
  8 26  1  0  0  0  0
  8  9  1  0  0  0  0
  9 27  1  0  0  0  0
  9 28  1  0  0  0  0
  9 10  1  0  0  0  0
 10 29  1  0  0  0  0
 10 30  1  0  0  0  0
 10 11  1  0  0  0  0
 11 12  1  0  0  0  0
 12 13  2  0  0  0  0
 13 14  1  0  0  0  0
 13 15  1  0  0  0  0
 15 16  2  0  0  0  0
 16 17  1  0  0  0  0
 17 31  1  0  0  0  0
 17 18  2  0  0  0  0
 18 32  1  0  0  0  0
 18 19  1  0  0  0  0
 19 33  1  0  0  0  0
 19 20  2  0  0  0  0
 20 15  1  0  0  0  0
 20 34  1  0  0  0  0
 16 21  1  0  0  0  0
 21 35  1  0  0  0  0
 21 22  2  0  0  0  0
 22 12  1  0  0  0  0
 22 36  1  0  0  0  0
M  END
>  <EXTREG>  (30)
30

>  <pIC50>  (30)
6.9208

>  <COMFA_1>  (30)
118.0000

>  <CoMFA_2__1>  (30)
6.6795

$$$$
31
  -MTS-   04202218243D 0   0.00000     0.00000     0

 36 38  0  0  0  0  0  0  0  0999 V2000
    5.1510   13.2420    7.5520 O   0  0  0  0  0  0  0  0  0  0  0  0
    4.6470   12.8010    8.5660 C   0  0  0  0  0  0  0  0  0  0  0  0
    5.4130   12.5620    9.6490 N   0  0  0  0  0  0  0  0  0  0  0  0
    4.9690   12.2920   10.9220 C   0  0  0  0  0  0  0  0  0  0  0  0
    6.0620   12.1180   11.6860 C   0  0  0  0  0  0  0  0  0  0  0  0
    7.1470   12.2740   10.9120 N   0  0  0  0  0  0  0  0  0  0  0  0
    6.7750   12.5350    9.6900 C   0  0  0  0  0  0  0  0  0  0  0  0
    3.3230   12.5570    8.6100 N   0  0  0  0  0  0  0  0  0  0  0  0
    2.4900   12.8230    7.4340 C   0  0  0  0  0  0  0  0  0  0  0  0
    2.1040   11.4990    6.7720 C   0  0  0  0  0  0  0  0  0  0  0  0
    0.8410   11.0630    7.2780 O   0  0  0  0  0  0  0  0  0  0  0  0
    0.7140    9.7530    6.9430 C   0  0  0  0  0  0  0  0  0  0  0  0
   -0.5610    9.2010    6.7070 C   0  0  0  0  0  0  0  0  0  0  0  0
   -0.6700    7.8320    6.3580 C   0  0  0  0  0  0  0  0  0  0  0  0
   -1.9420    7.2810    6.1220 C   0  0  0  0  0  0  0  0  0  0  0  0
   -3.0470    8.0670    6.2320 C   0  0  0  0  0  0  0  0  0  0  0  0
   -2.9390    9.4130    6.5750 C   0  0  0  0  0  0  0  0  0  0  0  0
   -1.7240    9.9810    6.8100 C   0  0  0  0  0  0  0  0  0  0  0  0
    0.4930    7.0510    6.2540 C   0  0  0  0  0  0  0  0  0  0  0  0
    1.7100    7.6170    6.4890 C   0  0  0  0  0  0  0  0  0  0  0  0
    1.8230    8.9620    6.8280 C   0  0  0  0  0  0  0  0  0  0  0  0
    3.9410   12.2330   11.2460 H   0  0  0  0  0  0  0  0  0  0  0  0
    6.0660   11.8910   12.7420 H   0  0  0  0  0  0  0  0  0  0  0  0
    7.4350   12.7070    8.8530 H   0  0  0  0  0  0  0  0  0  0  0  0
    2.9210   12.2050    9.4190 H   0  0  0  0  0  0  0  0  0  0  0  0
    1.5870   13.3520    7.7410 H   0  0  0  0  0  0  0  0  0  0  0  0
    3.0470   13.4350    6.7250 H   0  0  0  0  0  0  0  0  0  0  0  0
    2.0350   11.6380    5.6940 H   0  0  0  0  0  0  0  0  0  0  0  0
    2.8630   10.7470    6.9930 H   0  0  0  0  0  0  0  0  0  0  0  0
   -2.0410    6.2390    5.8550 H   0  0  0  0  0  0  0  0  0  0  0  0
   -4.0230    7.6410    6.0500 H   0  0  0  0  0  0  0  0  0  0  0  0
   -3.8320   10.0160    6.6550 H   0  0  0  0  0  0  0  0  0  0  0  0
   -1.6550   11.0250    7.0750 H   0  0  0  0  0  0  0  0  0  0  0  0
    0.4230    6.0070    5.9890 H   0  0  0  0  0  0  0  0  0  0  0  0
    2.6010    7.0130    6.4080 H   0  0  0  0  0  0  0  0  0  0  0  0
    2.8000    9.3850    7.0080 H   0  0  0  0  0  0  0  0  0  0  0  0
  1  2  2  0  0  0  0
  2  3  1  0  0  0  0
  3  4  1  0  0  0  0
  4 22  1  0  0  0  0
  4  5  2  0  0  0  0
  5 23  1  0  0  0  0
  5  6  1  0  0  0  0
  6  7  2  0  0  0  0
  7  3  1  0  0  0  0
  7 24  1  0  0  0  0
  2  8  1  0  0  0  0
  8 25  1  0  0  0  0
  8  9  1  0  0  0  0
  9 26  1  0  0  0  0
  9 27  1  0  0  0  0
  9 10  1  0  0  0  0
 10 28  1  0  0  0  0
 10 29  1  0  0  0  0
 10 11  1  0  0  0  0
 11 12  1  0  0  0  0
 12 13  1  0  0  0  0
 13 14  2  0  0  0  0
 14 15  1  0  0  0  0
 15 30  1  0  0  0  0
 15 16  2  0  0  0  0
 16 31  1  0  0  0  0
 16 17  1  0  0  0  0
 17 32  1  0  0  0  0
 17 18  2  0  0  0  0
 18 13  1  0  0  0  0
 18 33  1  0  0  0  0
 14 19  1  0  0  0  0
 19 34  1  0  0  0  0
 19 20  2  0  0  0  0
 20 35  1  0  0  0  0
 20 21  1  0  0  0  0
 21 12  2  0  0  0  0
 21 36  1  0  0  0  0
M  END
>  <EXTREG>  (31)
31

>  <pIC50>  (31)
6.1805

>  <COMFA_1>  (31)
106.0000

>  <CoMFA_2__1>  (31)
6.3791

$$$$
32
  -MTS-   04202218243D 0   0.00000     0.00000     0

 29 30  0  0  0  0  0  0  0  0999 V2000
    2.9660   11.4840    5.6180 O   0  0  0  0  0  0  0  0  0  0  0  0
    2.5570   11.8050    6.7160 C   0  0  0  0  0  0  0  0  0  0  0  0
    2.2950   13.0990    6.9860 N   0  0  0  0  0  0  0  0  0  0  0  0
    1.5950   13.5840    8.0660 C   0  0  0  0  0  0  0  0  0  0  0  0
    1.5710   14.9230    7.9430 C   0  0  0  0  0  0  0  0  0  0  0  0
    2.2340   15.2560    6.8250 N   0  0  0  0  0  0  0  0  0  0  0  0
    2.6780   14.1760    6.2450 C   0  0  0  0  0  0  0  0  0  0  0  0
    2.3610   10.8650    7.6620 N   0  0  0  0  0  0  0  0  0  0  0  0
    2.6410    9.4580    7.3670 C   0  0  0  0  0  0  0  0  0  0  0  0
    1.4400    8.8390    6.6490 C   0  0  0  0  0  0  0  0  0  0  0  0
    0.3050    8.8550    7.5180 O   0  0  0  0  0  0  0  0  0  0  0  0
   -0.7200    8.2880    6.8340 C   0  0  0  0  0  0  0  0  0  0  0  0
   -0.4670    7.3680    5.9190 N   0  0  0  0  0  0  0  0  0  0  0  0
   -1.4360    6.7900    5.2310 C   0  0  0  0  0  0  0  0  0  0  0  0
   -1.0080    5.4810    3.9350 Br  0  0  0  0  0  0  0  0  0  0  0  0
   -2.7570    7.1310    5.4470 C   0  0  0  0  0  0  0  0  0  0  0  0
   -3.0630    8.0920    6.4000 C   0  0  0  0  0  0  0  0  0  0  0  0
   -2.0260    8.6750    7.1070 C   0  0  0  0  0  0  0  0  0  0  0  0
    1.1490   13.0020    8.8590 H   0  0  0  0  0  0  0  0  0  0  0  0
    1.0980   15.6120    8.6280 H   0  0  0  0  0  0  0  0  0  0  0  0
    3.2460   14.1410    5.3270 H   0  0  0  0  0  0  0  0  0  0  0  0
    2.0350   11.1210    8.5390 H   0  0  0  0  0  0  0  0  0  0  0  0
    3.5210    9.3890    6.7280 H   0  0  0  0  0  0  0  0  0  0  0  0
    2.8240    8.9210    8.2970 H   0  0  0  0  0  0  0  0  0  0  0  0
    1.2170    9.4150    5.7500 H   0  0  0  0  0  0  0  0  0  0  0  0
    1.6720    7.8100    6.3730 H   0  0  0  0  0  0  0  0  0  0  0  0
   -3.5430    6.6540    4.8810 H   0  0  0  0  0  0  0  0  0  0  0  0
   -4.0880    8.3770    6.5880 H   0  0  0  0  0  0  0  0  0  0  0  0
   -2.2290    9.4270    7.8560 H   0  0  0  0  0  0  0  0  0  0  0  0
  1  2  2  0  0  0  0
  2  3  1  0  0  0  0
  3  4  1  0  0  0  0
  4 19  1  0  0  0  0
  4  5  2  0  0  0  0
  5 20  1  0  0  0  0
  5  6  1  0  0  0  0
  6  7  2  0  0  0  0
  7  3  1  0  0  0  0
  7 21  1  0  0  0  0
  2  8  1  0  0  0  0
  8 22  1  0  0  0  0
  8  9  1  0  0  0  0
  9 23  1  0  0  0  0
  9 24  1  0  0  0  0
  9 10  1  0  0  0  0
 10 25  1  0  0  0  0
 10 26  1  0  0  0  0
 10 11  1  0  0  0  0
 11 12  1  0  0  0  0
 12 13  1  0  0  0  0
 13 14  2  0  0  0  0
 14 15  1  0  0  0  0
 14 16  1  0  0  0  0
 16 27  1  0  0  0  0
 16 17  2  0  0  0  0
 17 28  1  0  0  0  0
 17 18  1  0  0  0  0
 18 12  2  0  0  0  0
 18 29  1  0  0  0  0
M  END
>  <EXTREG>  (32)
32

>  <pIC50>  (32)
5.5229

>  <COMFA_1>  (32)
100.0000

>  <CoMFA_2__1>  (32)
5.7568

$$$$
33
  -MTS-   04202218243D 0   0.00000     0.00000     0

 37 38  0  0  0  0  0  0  0  0999 V2000
    2.5640   13.0180    5.7860 O   0  0  0  0  0  0  0  0  0  0  0  0
    2.8850   12.6080    6.8840 C   0  0  0  0  0  0  0  0  0  0  0  0
    3.8450   13.2430    7.5860 N   0  0  0  0  0  0  0  0  0  0  0  0
    4.4600   14.4250    7.2480 C   0  0  0  0  0  0  0  0  0  0  0  0
    5.3480   14.6930    8.2220 C   0  0  0  0  0  0  0  0  0  0  0  0
    5.2850   13.7090    9.1330 N   0  0  0  0  0  0  0  0  0  0  0  0
    4.3870   12.8370    8.7690 C   0  0  0  0  0  0  0  0  0  0  0  0
    2.2760   11.5240    7.4030 N   0  0  0  0  0  0  0  0  0  0  0  0
    1.2280   10.8380    6.6420 C   0  0  0  0  0  0  0  0  0  0  0  0
    0.6880    9.6650    7.4620 C   0  0  0  0  0  0  0  0  0  0  0  0
    0.8610    8.4210    6.7080 N   0  0  0  0  0  0  0  0  0  0  0  0
    2.2040    7.8760    6.4930 C   0  0  0  0  0  0  0  0  0  0  0  0
   -0.2530    7.7550    6.1930 C   0  0  0  0  0  0  0  0  0  0  0  0
   -0.0870    6.7190    5.2830 C   0  0  0  0  0  0  0  0  0  0  0  0
   -1.1910    6.0630    4.7760 C   0  0  0  0  0  0  0  0  0  0  0  0
   -1.0110    4.9390    3.7880 C   0  0  0  0  0  0  0  0  0  0  0  0
   -2.4620    6.4340    5.1750 C   0  0  0  0  0  0  0  0  0  0  0  0
   -2.6310    7.4650    6.0820 C   0  0  0  0  0  0  0  0  0  0  0  0
   -1.5310    8.1220    6.5960 C   0  0  0  0  0  0  0  0  0  0  0  0
    4.2670   15.0230    6.3700 H   0  0  0  0  0  0  0  0  0  0  0  0
    6.0000   15.5530    8.2640 H   0  0  0  0  0  0  0  0  0  0  0  0
    4.1220   11.9410    9.3100 H   0  0  0  0  0  0  0  0  0  0  0  0
    2.5310   11.1970    8.2800 H   0  0  0  0  0  0  0  0  0  0  0  0
    0.4180   11.5360    6.4290 H   0  0  0  0  0  0  0  0  0  0  0  0
    1.6430   10.4660    5.7060 H   0  0  0  0  0  0  0  0  0  0  0  0
    1.2330    9.5980    8.4040 H   0  0  0  0  0  0  0  0  0  0  0  0
   -0.3710    9.8210    7.6660 H   0  0  0  0  0  0  0  0  0  0  0  0
    2.9400    8.5270    6.9630 H   0  0  0  0  0  0  0  0  0  0  0  0
    2.2670    6.8800    6.9320 H   0  0  0  0  0  0  0  0  0  0  0  0
    2.4040    7.8140    5.4230 H   0  0  0  0  0  0  0  0  0  0  0  0
    0.9060    6.4290    4.9710 H   0  0  0  0  0  0  0  0  0  0  0  0
   -0.9220    3.9940    4.3240 H   0  0  0  0  0  0  0  0  0  0  0  0
   -1.8730    4.8990    3.1220 H   0  0  0  0  0  0  0  0  0  0  0  0
   -0.1080    5.1110    3.2030 H   0  0  0  0  0  0  0  0  0  0  0  0
   -3.3240    5.9190    4.7780 H   0  0  0  0  0  0  0  0  0  0  0  0
   -3.6250    7.7530    6.3910 H   0  0  0  0  0  0  0  0  0  0  0  0
   -1.6640    8.9270    7.3040 H   0  0  0  0  0  0  0  0  0  0  0  0
  1  2  2  0  0  0  0
  2  3  1  0  0  0  0
  3  4  1  0  0  0  0
  4 20  1  0  0  0  0
  4  5  2  0  0  0  0
  5 21  1  0  0  0  0
  5  6  1  0  0  0  0
  6  7  2  0  0  0  0
  7  3  1  0  0  0  0
  7 22  1  0  0  0  0
  2  8  1  0  0  0  0
  8 23  1  0  0  0  0
  8  9  1  0  0  0  0
  9 24  1  0  0  0  0
  9 25  1  0  0  0  0
  9 10  1  0  0  0  0
 10 26  1  0  0  0  0
 10 27  1  0  0  0  0
 10 11  1  0  0  0  0
 11 12  1  0  0  0  0
 12 28  1  0  0  0  0
 12 29  1  0  0  0  0
 12 30  1  0  0  0  0
 11 13  1  0  0  0  0
 13 14  2  0  0  0  0
 14 31  1  0  0  0  0
 14 15  1  0  0  0  0
 15 16  1  0  0  0  0
 16 32  1  0  0  0  0
 16 33  1  0  0  0  0
 16 34  1  0  0  0  0
 15 17  2  0  0  0  0
 17 35  1  0  0  0  0
 17 18  1  0  0  0  0
 18 36  1  0  0  0  0
 18 19  2  0  0  0  0
 19 13  1  0  0  0  0
 19 37  1  0  0  0  0
M  END
>  <EXTREG>  (33)
33

>  <pIC50>  (33)
6.2798

>  <COMFA_1>  (33)
104.0000

>  <CoMFA_2__1>  (33)
6.5275

$$$$
34
  -MTS-   04202218243D 0   0.00000     0.00000     0

 32 33  0  0  0  0  0  0  0  0999 V2000
    5.2790   13.4800    7.5220 O   0  0  0  0  0  0  0  0  0  0  0  0
    4.7350   12.9770    8.4850 C   0  0  0  0  0  0  0  0  0  0  0  0
    5.4590   12.6530    9.5750 N   0  0  0  0  0  0  0  0  0  0  0  0
    4.9720   12.3880   10.8330 C   0  0  0  0  0  0  0  0  0  0  0  0
    6.0330   12.1120   11.6110 C   0  0  0  0  0  0  0  0  0  0  0  0
    7.1420   12.2020   10.8600 N   0  0  0  0  0  0  0  0  0  0  0  0
    6.8140   12.5200    9.6390 C   0  0  0  0  0  0  0  0  0  0  0  0
    3.4070   12.7480    8.4660 N   0  0  0  0  0  0  0  0  0  0  0  0
    2.6190   13.1050    7.2840 C   0  0  0  0  0  0  0  0  0  0  0  0
    2.1090   11.8510    6.6220 C   0  0  0  0  0  0  0  0  0  0  0  0
    1.1990   11.0860    7.2450 O   0  0  0  0  0  0  0  0  0  0  0  0
    1.0500    9.7820    6.8900 C   0  0  0  0  0  0  0  0  0  0  0  0
   -0.2050    9.2910    6.5630 C   0  0  0  0  0  0  0  0  0  0  0  0
   -0.3540    7.9650    6.2020 C   0  0  0  0  0  0  0  0  0  0  0  0
   -1.7180    7.4310    5.8460 C   0  0  0  0  0  0  0  0  0  0  0  0
    0.7460    7.1300    6.1670 C   0  0  0  0  0  0  0  0  0  0  0  0
    1.9990    7.6170    6.4930 C   0  0  0  0  0  0  0  0  0  0  0  0
    2.1540    8.9430    6.8480 C   0  0  0  0  0  0  0  0  0  0  0  0
    2.5200   11.5350    5.5310 O   0  0  0  0  0  0  0  0  0  0  0  0
    3.9360   12.4010   11.1380 H   0  0  0  0  0  0  0  0  0  0  0  0
    5.9990   11.8600   12.6610 H   0  0  0  0  0  0  0  0  0  0  0  0
    7.5010   12.6610    8.8170 H   0  0  0  0  0  0  0  0  0  0  0  0
    2.9730   12.3470    9.2350 H   0  0  0  0  0  0  0  0  0  0  0  0
    1.7750   13.7270    7.5840 H   0  0  0  0  0  0  0  0  0  0  0  0
    3.2460   13.6570    6.5830 H   0  0  0  0  0  0  0  0  0  0  0  0
   -1.0650    9.9430    6.5910 H   0  0  0  0  0  0  0  0  0  0  0  0
   -1.8880    7.5520    4.7760 H   0  0  0  0  0  0  0  0  0  0  0  0
   -1.7720    6.3730    6.1050 H   0  0  0  0  0  0  0  0  0  0  0  0
   -2.4790    7.9800    6.4000 H   0  0  0  0  0  0  0  0  0  0  0  0
    0.6280    6.0940    5.8840 H   0  0  0  0  0  0  0  0  0  0  0  0
    2.8570    6.9620    6.4650 H   0  0  0  0  0  0  0  0  0  0  0  0
    3.1320    9.3230    7.1030 H   0  0  0  0  0  0  0  0  0  0  0  0
  1  2  2  0  0  0  0
  2  3  1  0  0  0  0
  3  4  1  0  0  0  0
  4 20  1  0  0  0  0
  4  5  2  0  0  0  0
  5 21  1  0  0  0  0
  5  6  1  0  0  0  0
  6  7  2  0  0  0  0
  7  3  1  0  0  0  0
  7 22  1  0  0  0  0
  2  8  1  0  0  0  0
  8 23  1  0  0  0  0
  8  9  1  0  0  0  0
  9 24  1  0  0  0  0
  9 25  1  0  0  0  0
  9 10  1  0  0  0  0
 10 11  1  0  0  0  0
 11 12  1  0  0  0  0
 12 13  2  0  0  0  0
 13 26  1  0  0  0  0
 13 14  1  0  0  0  0
 14 15  1  0  0  0  0
 15 27  1  0  0  0  0
 15 28  1  0  0  0  0
 15 29  1  0  0  0  0
 14 16  2  0  0  0  0
 16 30  1  0  0  0  0
 16 17  1  0  0  0  0
 17 31  1  0  0  0  0
 17 18  2  0  0  0  0
 18 12  1  0  0  0  0
 18 32  1  0  0  0  0
 10 19  2  0  0  0  0
M  END
>  <EXTREG>  (34)
34

>  <pIC50>  (34)
5.6990

>  <COMFA_1>  (34)
98.0000

>  <CoMFA_2__1>  (34)
5.7395

$$$$
35
  -MTS-   04202218243D 0   0.00000     0.00000     0

 36 37  0  0  0  0  0  0  0  0999 V2000
    2.6670   11.8090    5.4720 O   0  0  0  0  0  0  0  0  0  0  0  0
    2.3910   12.1020    6.6180 C   0  0  0  0  0  0  0  0  0  0  0  0
    2.2180   13.3950    6.9610 N   0  0  0  0  0  0  0  0  0  0  0  0
    2.3960   14.4880    6.1460 C   0  0  0  0  0  0  0  0  0  0  0  0
    2.1170   15.5740    6.8880 C   0  0  0  0  0  0  0  0  0  0  0  0
    1.7770   15.1670    8.1210 N   0  0  0  0  0  0  0  0  0  0  0  0
    1.8280   13.8660    8.1780 C   0  0  0  0  0  0  0  0  0  0  0  0
    2.2520   11.1350    7.5460 N   0  0  0  0  0  0  0  0  0  0  0  0
    2.4340    9.7300    7.1730 C   0  0  0  0  0  0  0  0  0  0  0  0
    1.1560    9.1990    6.5770 C   0  0  0  0  0  0  0  0  0  0  0  0
    0.9790    7.8700    6.4360 N   0  0  0  0  0  0  0  0  0  0  0  0
    2.0340    6.9430    6.8520 C   0  0  0  0  0  0  0  0  0  0  0  0
   -0.2130    7.3770    5.8940 C   0  0  0  0  0  0  0  0  0  0  0  0
   -0.1750    6.4310    4.8790 C   0  0  0  0  0  0  0  0  0  0  0  0
   -1.3540    5.9450    4.3450 C   0  0  0  0  0  0  0  0  0  0  0  0
   -1.3140    4.9190    3.2430 C   0  0  0  0  0  0  0  0  0  0  0  0
   -2.5690    6.4000    4.8220 C   0  0  0  0  0  0  0  0  0  0  0  0
   -2.6100    7.3430    5.8340 C   0  0  0  0  0  0  0  0  0  0  0  0
   -1.4350    7.8280    6.3750 C   0  0  0  0  0  0  0  0  0  0  0  0
    0.2870    9.9670    6.2240 O   0  0  0  0  0  0  0  0  0  0  0  0
    2.7010   14.4760    5.1100 H   0  0  0  0  0  0  0  0  0  0  0  0
    2.1590   16.5990    6.5490 H   0  0  0  0  0  0  0  0  0  0  0  0
    1.6050   13.2640    9.0470 H   0  0  0  0  0  0  0  0  0  0  0  0
    2.0320   11.3690    8.4610 H   0  0  0  0  0  0  0  0  0  0  0  0
    3.2370    9.6500    6.4410 H   0  0  0  0  0  0  0  0  0  0  0  0
    2.6910    9.1490    8.0590 H   0  0  0  0  0  0  0  0  0  0  0  0
    2.8790    7.5070    7.2460 H   0  0  0  0  0  0  0  0  0  0  0  0
    1.6500    6.2770    7.6240 H   0  0  0  0  0  0  0  0  0  0  0  0
    2.3590    6.3550    5.9940 H   0  0  0  0  0  0  0  0  0  0  0  0
    0.7740    6.0750    4.5060 H   0  0  0  0  0  0  0  0  0  0  0  0
   -1.3120    3.9190    3.6780 H   0  0  0  0  0  0  0  0  0  0  0  0
   -2.1910    5.0360    2.6060 H   0  0  0  0  0  0  0  0  0  0  0  0
   -0.4120    5.0580    2.6480 H   0  0  0  0  0  0  0  0  0  0  0  0
   -3.4890    6.0190    4.4040 H   0  0  0  0  0  0  0  0  0  0  0  0
   -3.5610    7.6960    6.2040 H   0  0  0  0  0  0  0  0  0  0  0  0
   -1.4680    8.5640    7.1650 H   0  0  0  0  0  0  0  0  0  0  0  0
  1  2  2  0  0  0  0
  2  3  1  0  0  0  0
  3  4  1  0  0  0  0
  4 21  1  0  0  0  0
  4  5  2  0  0  0  0
  5 22  1  0  0  0  0
  5  6  1  0  0  0  0
  6  7  2  0  0  0  0
  7  3  1  0  0  0  0
  7 23  1  0  0  0  0
  2  8  1  0  0  0  0
  8 24  1  0  0  0  0
  8  9  1  0  0  0  0
  9 25  1  0  0  0  0
  9 26  1  0  0  0  0
  9 10  1  0  0  0  0
 10 11  1  0  0  0  0
 11 12  1  0  0  0  0
 12 27  1  0  0  0  0
 12 28  1  0  0  0  0
 12 29  1  0  0  0  0
 11 13  1  0  0  0  0
 13 14  2  0  0  0  0
 14 30  1  0  0  0  0
 14 15  1  0  0  0  0
 15 16  1  0  0  0  0
 16 31  1  0  0  0  0
 16 32  1  0  0  0  0
 16 33  1  0  0  0  0
 15 17  2  0  0  0  0
 17 34  1  0  0  0  0
 17 18  1  0  0  0  0
 18 35  1  0  0  0  0
 18 19  2  0  0  0  0
 19 13  1  0  0  0  0
 19 36  1  0  0  0  0
 10 20  2  0  0  0  0
M  END
>  <EXTREG>  (35)
35

>  <pIC50>  (35)
5.2076

>  <COMFA_1>  (35)
108.0000

>  <CoMFA_2__1>  (35)
5.4058

$$$$
36
  -MTS-   04202218243D 0   0.00000     0.00000     0

 32 33  0  0  0  0  0  0  0  0999 V2000
    5.4320   13.2800    7.6420 O   0  0  0  0  0  0  0  0  0  0  0  0
    4.9140   12.7590    8.6100 C   0  0  0  0  0  0  0  0  0  0  0  0
    5.6290   12.5730    9.7380 N   0  0  0  0  0  0  0  0  0  0  0  0
    5.1410   12.1720   10.9590 C   0  0  0  0  0  0  0  0  0  0  0  0
    6.1920   12.1150   11.7970 C   0  0  0  0  0  0  0  0  0  0  0  0
    7.2940   12.4670   11.1170 N   0  0  0  0  0  0  0  0  0  0  0  0
    6.9740   12.7390    9.8820 C   0  0  0  0  0  0  0  0  0  0  0  0
    3.6240   12.3740    8.5590 N   0  0  0  0  0  0  0  0  0  0  0  0
    2.8450   12.5830    7.3360 C   0  0  0  0  0  0  0  0  0  0  0  0
    2.6520   11.2640    6.6320 C   0  0  0  0  0  0  0  0  0  0  0  0
    1.5830   10.5020    6.9160 O   0  0  0  0  0  0  0  0  0  0  0  0
    1.6710    9.0570    6.8020 C   0  0  0  0  0  0  0  0  0  0  0  0
    0.3060    8.4930    6.5050 C   0  0  0  0  0  0  0  0  0  0  0  0
    0.1740    7.4260    5.6350 C   0  0  0  0  0  0  0  0  0  0  0  0
   -1.0790    6.9090    5.3620 C   0  0  0  0  0  0  0  0  0  0  0  0
   -2.1990    7.4580    5.9590 C   0  0  0  0  0  0  0  0  0  0  0  0
   -2.0660    8.5240    6.8290 C   0  0  0  0  0  0  0  0  0  0  0  0
   -0.8130    9.0380    7.1050 C   0  0  0  0  0  0  0  0  0  0  0  0
    3.4580   10.8920    5.8130 O   0  0  0  0  0  0  0  0  0  0  0  0
    4.1130   11.9490   11.2000 H   0  0  0  0  0  0  0  0  0  0  0  0
    6.1550   11.8330   12.8390 H   0  0  0  0  0  0  0  0  0  0  0  0
    7.6590   13.0500    9.1070 H   0  0  0  0  0  0  0  0  0  0  0  0
    3.2110   11.9590    9.3320 H   0  0  0  0  0  0  0  0  0  0  0  0
    1.8730   13.0040    7.5910 H   0  0  0  0  0  0  0  0  0  0  0  0
    3.3780   13.2700    6.6790 H   0  0  0  0  0  0  0  0  0  0  0  0
    2.3560    8.7970    5.9950 H   0  0  0  0  0  0  0  0  0  0  0  0
    2.0400    8.6410    7.7400 H   0  0  0  0  0  0  0  0  0  0  0  0
    1.0490    6.9980    5.1690 H   0  0  0  0  0  0  0  0  0  0  0  0
   -1.1820    6.0760    4.6820 H   0  0  0  0  0  0  0  0  0  0  0  0
   -3.1770    7.0540    5.7450 H   0  0  0  0  0  0  0  0  0  0  0  0
   -2.9410    8.9530    7.2940 H   0  0  0  0  0  0  0  0  0  0  0  0
   -0.7100    9.8710    7.7850 H   0  0  0  0  0  0  0  0  0  0  0  0
  1  2  2  0  0  0  0
  2  3  1  0  0  0  0
  3  4  1  0  0  0  0
  4 20  1  0  0  0  0
  4  5  2  0  0  0  0
  5 21  1  0  0  0  0
  5  6  1  0  0  0  0
  6  7  2  0  0  0  0
  7  3  1  0  0  0  0
  7 22  1  0  0  0  0
  2  8  1  0  0  0  0
  8 23  1  0  0  0  0
  8  9  1  0  0  0  0
  9 24  1  0  0  0  0
  9 25  1  0  0  0  0
  9 10  1  0  0  0  0
 10 11  1  0  0  0  0
 11 12  1  0  0  0  0
 12 26  1  0  0  0  0
 12 27  1  0  0  0  0
 12 13  1  0  0  0  0
 13 14  2  0  0  0  0
 14 28  1  0  0  0  0
 14 15  1  0  0  0  0
 15 29  1  0  0  0  0
 15 16  2  0  0  0  0
 16 30  1  0  0  0  0
 16 17  1  0  0  0  0
 17 31  1  0  0  0  0
 17 18  2  0  0  0  0
 18 13  1  0  0  0  0
 18 32  1  0  0  0  0
 10 19  2  0  0  0  0
M  END
>  <EXTREG>  (36)
36

>  <pIC50>  (36)
6.2218

>  <COMFA_1>  (36)
108.0000

>  <CoMFA_2__1>  (36)
5.8004

$$$$
39
  -MTS-   04202218243D 0   0.00000     0.00000     0

 32 33  0  0  0  0  0  0  0  0999 V2000
    3.7620   10.8640    5.8910 O   0  0  0  0  0  0  0  0  0  0  0  0
    2.8150   10.7840    6.6490 C   0  0  0  0  0  0  0  0  0  0  0  0
    2.4340   11.8590    7.3690 O   0  0  0  0  0  0  0  0  0  0  0  0
    3.2760   13.0420    7.4080 C   0  0  0  0  0  0  0  0  0  0  0  0
    4.6150   12.6940    8.0610 C   0  0  0  0  0  0  0  0  0  0  0  0
    4.4220   12.5090    9.5020 N   0  0  0  0  0  0  0  0  0  0  0  0
    5.4880   12.4800   10.3260 C   0  0  0  0  0  0  0  0  0  0  0  0
    5.3110   12.3110   11.6510 N   0  0  0  0  0  0  0  0  0  0  0  0
    6.2860   12.0980   12.5790 C   0  0  0  0  0  0  0  0  0  0  0  0
    5.7250   11.9830   13.7500 N   0  0  0  0  0  0  0  0  0  0  0  0
    4.3950   12.1150   13.6230 C   0  0  0  0  0  0  0  0  0  0  0  0
    4.1130   12.3260   12.3250 C   0  0  0  0  0  0  0  0  0  0  0  0
    6.6090   12.6080    9.8740 O   0  0  0  0  0  0  0  0  0  0  0  0
    2.0830    9.5210    6.7750 C   0  0  0  0  0  0  0  0  0  0  0  0
    0.7560    9.3880    7.0750 C   0  0  0  0  0  0  0  0  0  0  0  0
   -0.2230   10.5040    7.3350 C   0  0  0  0  0  0  0  0  0  0  0  0
    0.4830    8.0120    7.0930 C   0  0  0  0  0  0  0  0  0  0  0  0
    1.6390    7.3730    6.8070 C   0  0  0  0  0  0  0  0  0  0  0  0
    2.5990    8.2850    6.6110 O   0  0  0  0  0  0  0  0  0  0  0  0
    3.4480   13.3980    6.3930 H   0  0  0  0  0  0  0  0  0  0  0  0
    2.7800   13.8210    7.9880 H   0  0  0  0  0  0  0  0  0  0  0  0
    5.0030   11.7730    7.6260 H   0  0  0  0  0  0  0  0  0  0  0  0
    5.3240   13.5040    7.8900 H   0  0  0  0  0  0  0  0  0  0  0  0
    3.5280   12.4080    9.8620 H   0  0  0  0  0  0  0  0  0  0  0  0
    7.3460   12.0340   12.3780 H   0  0  0  0  0  0  0  0  0  0  0  0
    3.6750   12.0650   14.4270 H   0  0  0  0  0  0  0  0  0  0  0  0
    3.1340   12.4720   11.8950 H   0  0  0  0  0  0  0  0  0  0  0  0
   -0.6890   10.8050    6.3970 H   0  0  0  0  0  0  0  0  0  0  0  0
   -0.9910   10.1590    8.0270 H   0  0  0  0  0  0  0  0  0  0  0  0
    0.3020   11.3540    7.7700 H   0  0  0  0  0  0  0  0  0  0  0  0
   -0.4720    7.5510    7.2970 H   0  0  0  0  0  0  0  0  0  0  0  0
    1.7660    6.3020    6.7430 H   0  0  0  0  0  0  0  0  0  0  0  0
  1  2  2  0  0  0  0
  2  3  1  0  0  0  0
  3  4  1  0  0  0  0
  4 20  1  0  0  0  0
  4 21  1  0  0  0  0
  4  5  1  0  0  0  0
  5 22  1  0  0  0  0
  5 23  1  0  0  0  0
  5  6  1  0  0  0  0
  6 24  1  0  0  0  0
  6  7  1  0  0  0  0
  7  8  1  0  0  0  0
  8  9  1  0  0  0  0
  9 25  1  0  0  0  0
  9 10  2  0  0  0  0
 10 11  1  0  0  0  0
 11 26  1  0  0  0  0
 11 12  2  0  0  0  0
 12  8  1  0  0  0  0
 12 27  1  0  0  0  0
  7 13  2  0  0  0  0
  2 14  1  0  0  0  0
 14 15  2  0  0  0  0
 15 16  1  0  0  0  0
 16 28  1  0  0  0  0
 16 29  1  0  0  0  0
 16 30  1  0  0  0  0
 15 17  1  0  0  0  0
 17 31  1  0  0  0  0
 17 18  2  0  0  0  0
 18 32  1  0  0  0  0
 18 19  1  0  0  0  0
 19 14  1  0  0  0  0
M  END
>  <EXTREG>  (39)
39

>  <pIC50>  (39)
5.4908

>  <COMFA_1>  (39)
112.0000

>  <CoMFA_2__1>  (39)
5.5746

$$$$
40
  -MTS-   04202218243D 0   0.00000     0.00000     0

 38 40  0  0  0  0  0  0  0  0999 V2000
    2.6180   11.8020    5.4160 O   0  0  0  0  0  0  0  0  0  0  0  0
    2.6140   11.2530    6.4990 C   0  0  0  0  0  0  0  0  0  0  0  0
    3.1490   11.8710    7.5710 O   0  0  0  0  0  0  0  0  0  0  0  0
    4.0550   12.9900    7.3860 C   0  0  0  0  0  0  0  0  0  0  0  0
    5.3250   12.7590    8.2060 C   0  0  0  0  0  0  0  0  0  0  0  0
    4.9840   12.7050    9.6300 N   0  0  0  0  0  0  0  0  0  0  0  0
    5.9280   12.3830   10.5370 C   0  0  0  0  0  0  0  0  0  0  0  0
    5.6140   12.3340   11.8470 N   0  0  0  0  0  0  0  0  0  0  0  0
    6.4810   12.1460   12.8820 C   0  0  0  0  0  0  0  0  0  0  0  0
    5.8030   12.1600   13.9960 N   0  0  0  0  0  0  0  0  0  0  0  0
    4.5020   12.3510   13.7260 C   0  0  0  0  0  0  0  0  0  0  0  0
    4.3600   12.4680   12.3940 C   0  0  0  0  0  0  0  0  0  0  0  0
    7.0610   12.1370   10.1740 O   0  0  0  0  0  0  0  0  0  0  0  0
    2.0170    9.9130    6.6430 C   0  0  0  0  0  0  0  0  0  0  0  0
    0.5690    9.7490    6.7470 C   0  0  0  0  0  0  0  0  0  0  0  0
   -0.2970   10.8490    6.7140 C   0  0  0  0  0  0  0  0  0  0  0  0
    0.3950   12.5990    6.5310 Br  0  0  0  0  0  0  0  0  0  0  0  0
   -1.6430   10.6500    6.8140 C   0  0  0  0  0  0  0  0  0  0  0  0
   -2.1680    9.3680    6.9490 C   0  0  0  0  0  0  0  0  0  0  0  0
   -1.3550    8.2770    6.9860 C   0  0  0  0  0  0  0  0  0  0  0  0
    0.0370    8.4430    6.8850 C   0  0  0  0  0  0  0  0  0  0  0  0
    0.9090    7.3420    6.9170 C   0  0  0  0  0  0  0  0  0  0  0  0
    2.2550    7.5190    6.8180 C   0  0  0  0  0  0  0  0  0  0  0  0
    2.8200    8.7790    6.6770 C   0  0  0  0  0  0  0  0  0  0  0  0
    4.3140   13.0770    6.3310 H   0  0  0  0  0  0  0  0  0  0  0  0
    3.5700   13.9080    7.7170 H   0  0  0  0  0  0  0  0  0  0  0  0
    5.7850   11.8170    7.9070 H   0  0  0  0  0  0  0  0  0  0  0  0
    6.0250   13.5770    8.0310 H   0  0  0  0  0  0  0  0  0  0  0  0
    4.0800   12.9020    9.9190 H   0  0  0  0  0  0  0  0  0  0  0  0
    7.5480   12.0100   12.7940 H   0  0  0  0  0  0  0  0  0  0  0  0
    3.7070   12.4070   14.4540 H   0  0  0  0  0  0  0  0  0  0  0  0
    3.4370   12.6310   11.8570 H   0  0  0  0  0  0  0  0  0  0  0  0
   -2.3100   11.5000    6.7890 H   0  0  0  0  0  0  0  0  0  0  0  0
   -3.2380    9.2370    7.0270 H   0  0  0  0  0  0  0  0  0  0  0  0
   -1.7770    7.2880    7.0910 H   0  0  0  0  0  0  0  0  0  0  0  0
    0.5070    6.3450    7.0220 H   0  0  0  0  0  0  0  0  0  0  0  0
    2.9020    6.6540    6.8460 H   0  0  0  0  0  0  0  0  0  0  0  0
    3.8920    8.8800    6.6010 H   0  0  0  0  0  0  0  0  0  0  0  0
  1  2  2  0  0  0  0
  2  3  1  0  0  0  0
  3  4  1  0  0  0  0
  4 25  1  0  0  0  0
  4 26  1  0  0  0  0
  4  5  1  0  0  0  0
  5 27  1  0  0  0  0
  5 28  1  0  0  0  0
  5  6  1  0  0  0  0
  6 29  1  0  0  0  0
  6  7  1  0  0  0  0
  7  8  1  0  0  0  0
  8  9  1  0  0  0  0
  9 30  1  0  0  0  0
  9 10  2  0  0  0  0
 10 11  1  0  0  0  0
 11 31  1  0  0  0  0
 11 12  2  0  0  0  0
 12  8  1  0  0  0  0
 12 32  1  0  0  0  0
  7 13  2  0  0  0  0
  2 14  1  0  0  0  0
 14 15  1  0  0  0  0
 15 16  1  0  0  0  0
 16 17  1  0  0  0  0
 16 18  2  0  0  0  0
 18 33  1  0  0  0  0
 18 19  1  0  0  0  0
 19 34  1  0  0  0  0
 19 20  2  0  0  0  0
 20 35  1  0  0  0  0
 20 21  1  0  0  0  0
 21 15  2  0  0  0  0
 21 22  1  0  0  0  0
 22 36  1  0  0  0  0
 22 23  2  0  0  0  0
 23 37  1  0  0  0  0
 23 24  1  0  0  0  0
 24 14  2  0  0  0  0
 24 38  1  0  0  0  0
M  END
>  <EXTREG>  (40)
40

>  <pIC50>  (40)
6.1249

>  <COMFA_1>  (40)
118.0000

>  <CoMFA_2__1>  (40)
6.0279

$$$$
41
  -MTS-   04202218243D 0   0.00000     0.00000     0

 34 35  0  0  0  0  0  0  0  0999 V2000
    3.0470   12.0790    5.7110 O   0  0  0  0  0  0  0  0  0  0  0  0
    3.0840   12.0110    6.9230 C   0  0  0  0  0  0  0  0  0  0  0  0
    3.7880   12.9190    7.6280 N   0  0  0  0  0  0  0  0  0  0  0  0
    4.2010   14.1420    7.1700 C   0  0  0  0  0  0  0  0  0  0  0  0
    4.8740   14.7570    8.1610 C   0  0  0  0  0  0  0  0  0  0  0  0
    4.8800   13.8880    9.2740 C   0  0  0  0  0  0  0  0  0  0  0  0
    4.2070   12.7760    8.9250 C   0  0  0  0  0  0  0  0  0  0  0  0
    2.4160   11.0310    7.5640 N   0  0  0  0  0  0  0  0  0  0  0  0
    1.6460   10.0490    6.7980 C   0  0  0  0  0  0  0  0  0  0  0  0
    1.5730    8.7360    7.5810 C   0  0  0  0  0  0  0  0  0  0  0  0
    0.2370    8.5320    8.0450 O   0  0  0  0  0  0  0  0  0  0  0  0
   -0.4240    7.8690    7.0610 C   0  0  0  0  0  0  0  0  0  0  0  0
   -1.7880    8.0560    6.8910 C   0  0  0  0  0  0  0  0  0  0  0  0
   -2.4580    7.3810    5.8890 C   0  0  0  0  0  0  0  0  0  0  0  0
   -3.9400    7.5840    5.7040 C   0  0  0  0  0  0  0  0  0  0  0  0
   -1.7700    6.5180    5.0560 C   0  0  0  0  0  0  0  0  0  0  0  0
   -0.4100    6.3290    5.2230 C   0  0  0  0  0  0  0  0  0  0  0  0
    0.2650    7.0070    6.2190 C   0  0  0  0  0  0  0  0  0  0  0  0
    4.0190   14.5440    6.1840 H   0  0  0  0  0  0  0  0  0  0  0  0
    5.3260   15.7360    8.1140 H   0  0  0  0  0  0  0  0  0  0  0  0
    5.3390   14.0820   10.2320 H   0  0  0  0  0  0  0  0  0  0  0  0
    4.0320   11.9170    9.5550 H   0  0  0  0  0  0  0  0  0  0  0  0
    2.4460   10.9770    8.5320 H   0  0  0  0  0  0  0  0  0  0  0  0
    0.6380   10.4280    6.6300 H   0  0  0  0  0  0  0  0  0  0  0  0
    2.1330    9.8730    5.8390 H   0  0  0  0  0  0  0  0  0  0  0  0
    1.8620    7.9090    6.9320 H   0  0  0  0  0  0  0  0  0  0  0  0
    2.2500    8.7830    8.4340 H   0  0  0  0  0  0  0  0  0  0  0  0
   -2.3260    8.7290    7.5420 H   0  0  0  0  0  0  0  0  0  0  0  0
   -4.1100    8.4080    5.0120 H   0  0  0  0  0  0  0  0  0  0  0  0
   -4.3840    6.6740    5.3020 H   0  0  0  0  0  0  0  0  0  0  0  0
   -4.3970    7.8170    6.6660 H   0  0  0  0  0  0  0  0  0  0  0  0
   -2.2950    5.9910    4.2730 H   0  0  0  0  0  0  0  0  0  0  0  0
    0.1250    5.6550    4.5710 H   0  0  0  0  0  0  0  0  0  0  0  0
    1.3270    6.8600    6.3490 H   0  0  0  0  0  0  0  0  0  0  0  0
  1  2  2  0  0  0  0
  2  3  1  0  0  0  0
  3  4  1  0  0  0  0
  4 19  1  0  0  0  0
  4  5  2  0  0  0  0
  5 20  1  0  0  0  0
  5  6  1  0  0  0  0
  6 21  1  0  0  0  0
  6  7  2  0  0  0  0
  7  3  1  0  0  0  0
  7 22  1  0  0  0  0
  2  8  1  0  0  0  0
  8 23  1  0  0  0  0
  8  9  1  0  0  0  0
  9 24  1  0  0  0  0
  9 25  1  0  0  0  0
  9 10  1  0  0  0  0
 10 26  1  0  0  0  0
 10 27  1  0  0  0  0
 10 11  1  0  0  0  0
 11 12  1  0  0  0  0
 12 13  2  0  0  0  0
 13 28  1  0  0  0  0
 13 14  1  0  0  0  0
 14 15  1  0  0  0  0
 15 29  1  0  0  0  0
 15 30  1  0  0  0  0
 15 31  1  0  0  0  0
 14 16  2  0  0  0  0
 16 32  1  0  0  0  0
 16 17  1  0  0  0  0
 17 33  1  0  0  0  0
 17 18  2  0  0  0  0
 18 12  1  0  0  0  0
 18 34  1  0  0  0  0
M  END
>  <EXTREG>  (41)
41

>  <pIC50>  (41)
4.1135

>  <COMFA_1>  (41)
110.0000

>  <CoMFA_2__1>  (41)
4.6590

$$$$
42
  -MTS-   04202218243D 0   0.00000     0.00000     0

 39 41  0  0  0  0  0  0  0  0999 V2000
    6.1640   13.2130    9.5280 O   0  0  0  0  0  0  0  0  0  0  0  0
    5.2020   12.8250   10.1630 C   0  0  0  0  0  0  0  0  0  0  0  0
    5.3050   12.6370   11.4940 N   0  0  0  0  0  0  0  0  0  0  0  0
    6.4360   12.8850   12.2480 C   0  0  0  0  0  0  0  0  0  0  0  0
    7.7090   13.3540   11.9450 C   0  0  0  0  0  0  0  0  0  0  0  0
    8.6230   13.4840   12.9760 C   0  0  0  0  0  0  0  0  0  0  0  0
    8.2510   13.1470   14.2680 C   0  0  0  0  0  0  0  0  0  0  0  0
    7.0410   12.7040   14.5370 N   0  0  0  0  0  0  0  0  0  0  0  0
    6.1270   12.5620   13.5820 C   0  0  0  0  0  0  0  0  0  0  0  0
    4.7340   12.1040   13.5740 C   0  0  0  0  0  0  0  0  0  0  0  0
    4.3000   12.1770   12.3070 C   0  0  0  0  0  0  0  0  0  0  0  0
    4.0330   12.5890    9.5370 N   0  0  0  0  0  0  0  0  0  0  0  0
    3.9200   12.7990    8.0910 C   0  0  0  0  0  0  0  0  0  0  0  0
    3.5340   11.4820    7.4140 C   0  0  0  0  0  0  0  0  0  0  0  0
    2.1800   11.5590    6.9610 O   0  0  0  0  0  0  0  0  0  0  0  0
    1.6960   10.2890    6.9540 C   0  0  0  0  0  0  0  0  0  0  0  0
    0.3450   10.0600    7.1680 C   0  0  0  0  0  0  0  0  0  0  0  0
   -0.1450    8.7680    7.1610 C   0  0  0  0  0  0  0  0  0  0  0  0
   -1.6130    8.5180    7.3930 C   0  0  0  0  0  0  0  0  0  0  0  0
    0.7100    7.7040    6.9400 C   0  0  0  0  0  0  0  0  0  0  0  0
    2.0580    7.9300    6.7270 C   0  0  0  0  0  0  0  0  0  0  0  0
    2.5510    9.2200    6.7270 C   0  0  0  0  0  0  0  0  0  0  0  0
    7.9780   13.6110   10.9310 H   0  0  0  0  0  0  0  0  0  0  0  0
    9.6200   13.8460   12.7750 H   0  0  0  0  0  0  0  0  0  0  0  0
    8.9670   13.2500   15.0700 H   0  0  0  0  0  0  0  0  0  0  0  0
    4.1640   11.7740   14.4290 H   0  0  0  0  0  0  0  0  0  0  0  0
    3.3080   11.9060   11.9750 H   0  0  0  0  0  0  0  0  0  0  0  0
    3.2650   12.2790   10.0430 H   0  0  0  0  0  0  0  0  0  0  0  0
    3.1540   13.5490    7.8920 H   0  0  0  0  0  0  0  0  0  0  0  0
    4.8770   13.1420    7.6980 H   0  0  0  0  0  0  0  0  0  0  0  0
    4.1910   11.3050    6.5630 H   0  0  0  0  0  0  0  0  0  0  0  0
    3.6330   10.6640    8.1260 H   0  0  0  0  0  0  0  0  0  0  0  0
   -0.3240   10.8900    7.3410 H   0  0  0  0  0  0  0  0  0  0  0  0
   -2.1390    8.5290    6.4380 H   0  0  0  0  0  0  0  0  0  0  0  0
   -1.7450    7.5460    7.8700 H   0  0  0  0  0  0  0  0  0  0  0  0
   -2.0160    9.2970    8.0390 H   0  0  0  0  0  0  0  0  0  0  0  0
    0.3260    6.6950    6.9340 H   0  0  0  0  0  0  0  0  0  0  0  0
    2.7240    7.0980    6.5550 H   0  0  0  0  0  0  0  0  0  0  0  0
    3.6040    9.3970    6.5600 H   0  0  0  0  0  0  0  0  0  0  0  0
  1  2  2  0  0  0  0
  2  3  1  0  0  0  0
  3  4  1  0  0  0  0
  4  5  2  0  0  0  0
  5 23  1  0  0  0  0
  5  6  1  0  0  0  0
  6 24  1  0  0  0  0
  6  7  2  0  0  0  0
  7 25  1  0  0  0  0
  7  8  1  0  0  0  0
  8  9  2  0  0  0  0
  9  4  1  0  0  0  0
  9 10  1  0  0  0  0
 10 26  1  0  0  0  0
 10 11  2  0  0  0  0
 11  3  1  0  0  0  0
 11 27  1  0  0  0  0
  2 12  1  0  0  0  0
 12 28  1  0  0  0  0
 12 13  1  0  0  0  0
 13 29  1  0  0  0  0
 13 30  1  0  0  0  0
 13 14  1  0  0  0  0
 14 31  1  0  0  0  0
 14 32  1  0  0  0  0
 14 15  1  0  0  0  0
 15 16  1  0  0  0  0
 16 17  2  0  0  0  0
 17 33  1  0  0  0  0
 17 18  1  0  0  0  0
 18 19  1  0  0  0  0
 19 34  1  0  0  0  0
 19 35  1  0  0  0  0
 19 36  1  0  0  0  0
 18 20  2  0  0  0  0
 20 37  1  0  0  0  0
 20 21  1  0  0  0  0
 21 38  1  0  0  0  0
 21 22  2  0  0  0  0
 22 16  1  0  0  0  0
 22 39  1  0  0  0  0
M  END
>  <EXTREG>  (42)
42

>  <pIC50>  (42)
5.4949

>  <COMFA_1>  (42)
124.0000

>  <CoMFA_2__1>  (42)
5.5072

$$$$
55
  -MTS-   04202218243D 0   0.00000     0.00000     0

 32 33  0  0  0  0  0  0  0  0999 V2000
   -0.8540    4.0110    2.8540 N   0  0  0  0  0  0  0  0  0  0  0  0
   -1.1070    4.8700    3.5530 C   0  0  0  0  0  0  0  0  0  0  0  0
   -1.4250    5.9520    4.4350 C   0  0  0  0  0  0  0  0  0  0  0  0
   -2.6780    6.3880    4.5280 N   0  0  0  0  0  0  0  0  0  0  0  0
   -2.9730    7.3910    5.3460 C   0  0  0  0  0  0  0  0  0  0  0  0
   -4.2480    7.8340    5.4410 O   0  0  0  0  0  0  0  0  0  0  0  0
   -4.5770    8.4190    4.1800 C   0  0  0  0  0  0  0  0  0  0  0  0
   -6.0980    8.5170    4.0430 C   0  0  0  0  0  0  0  0  0  0  0  0
   -2.0190    7.9600    6.0710 N   0  0  0  0  0  0  0  0  0  0  0  0
   -0.7650    7.5270    5.9790 C   0  0  0  0  0  0  0  0  0  0  0  0
    0.2270    8.1190    6.7340 N   0  0  0  0  0  0  0  0  0  0  0  0
    0.1790    9.5550    6.4410 C   0  0  0  0  0  0  0  0  0  0  0  0
    1.2620   10.2830    7.2400 C   0  0  0  0  0  0  0  0  0  0  0  0
    2.6380    9.7520    6.8240 C   0  0  0  0  0  0  0  0  0  0  0  0
    2.6610    8.2320    7.0090 C   0  0  0  0  0  0  0  0  0  0  0  0
    1.5050    7.6110    6.2220 C   0  0  0  0  0  0  0  0  0  0  0  0
   -0.4690    6.5190    5.1640 N   0  0  0  0  0  0  0  0  0  0  0  0
   -4.1420    9.4170    4.1180 H   0  0  0  0  0  0  0  0  0  0  0  0
   -4.1790    7.8000    3.3760 H   0  0  0  0  0  0  0  0  0  0  0  0
   -6.3480    8.9640    3.0810 H   0  0  0  0  0  0  0  0  0  0  0  0
   -6.5330    7.5190    4.1050 H   0  0  0  0  0  0  0  0  0  0  0  0
   -6.4950    9.1370    4.8460 H   0  0  0  0  0  0  0  0  0  0  0  0
    0.3470    9.7140    5.3750 H   0  0  0  0  0  0  0  0  0  0  0  0
   -0.8000    9.9480    6.7150 H   0  0  0  0  0  0  0  0  0  0  0  0
    1.2080   11.3520    7.0370 H   0  0  0  0  0  0  0  0  0  0  0  0
    1.1100   10.1050    8.3050 H   0  0  0  0  0  0  0  0  0  0  0  0
    2.8210    9.9950    5.7770 H   0  0  0  0  0  0  0  0  0  0  0  0
    3.4080   10.2080    7.4460 H   0  0  0  0  0  0  0  0  0  0  0  0
    3.6070    7.8350    6.6410 H   0  0  0  0  0  0  0  0  0  0  0  0
    2.5510    7.9920    8.0670 H   0  0  0  0  0  0  0  0  0  0  0  0
    1.5340    6.5270    6.3300 H   0  0  0  0  0  0  0  0  0  0  0  0
    1.6030    7.8720    5.1680 H   0  0  0  0  0  0  0  0  0  0  0  0
  1  2  3  0  0  0  0
  2  3  1  0  0  0  0
  3  4  2  0  0  0  0
  4  5  1  0  0  0  0
  5  6  1  0  0  0  0
  6  7  1  0  0  0  0
  7 18  1  0  0  0  0
  7 19  1  0  0  0  0
  7  8  1  0  0  0  0
  8 20  1  0  0  0  0
  8 21  1  0  0  0  0
  8 22  1  0  0  0  0
  5  9  2  0  0  0  0
  9 10  1  0  0  0  0
 10 11  1  0  0  0  0
 11 12  1  0  0  0  0
 12 23  1  0  0  0  0
 12 24  1  0  0  0  0
 12 13  1  0  0  0  0
 13 25  1  0  0  0  0
 13 26  1  0  0  0  0
 13 14  1  0  0  0  0
 14 27  1  0  0  0  0
 14 28  1  0  0  0  0
 14 15  1  0  0  0  0
 15 29  1  0  0  0  0
 15 30  1  0  0  0  0
 15 16  1  0  0  0  0
 16 11  1  0  0  0  0
 16 31  1  0  0  0  0
 16 32  1  0  0  0  0
 10 17  2  0  0  0  0
 17  3  1  0  0  0  0
M  END
>  <EXTREG>  (55)
55

>  <pIC50>  (55)
7.0458

>  <COMFA_1>  (55)
98.0000

>  <CoMFA_2__1>  (55)
6.8857

$$$$
61
  -MTS-   04202218243D 0   0.00000     0.00000     0

 34 36  0  0  0  0  0  0  0  0999 V2000
    2.0540   14.9560    2.7250 N   0  0  0  0  0  0  0  0  0  0  0  0
    1.3120   13.8960    3.2080 C   0  0  0  0  0  0  0  0  0  0  0  0
    1.7220   13.2350    4.2850 N   0  0  0  0  0  0  0  0  0  0  0  0
    1.0080   12.2150    4.7500 C   0  0  0  0  0  0  0  0  0  0  0  0
    1.4340   11.5270    5.8720 N   0  0  0  0  0  0  0  0  0  0  0  0
    2.6590   11.8490    6.4670 C   0  0  0  0  0  0  0  0  0  0  0  0
    2.7560   12.9500    7.3080 C   0  0  0  0  0  0  0  0  0  0  0  0
    3.9660   13.2650    7.8940 C   0  0  0  0  0  0  0  0  0  0  0  0
    5.0800   12.4860    7.6440 C   0  0  0  0  0  0  0  0  0  0  0  0
    4.9870   11.3890    6.8070 C   0  0  0  0  0  0  0  0  0  0  0  0
    3.7790   11.0660    6.2220 C   0  0  0  0  0  0  0  0  0  0  0  0
    0.6400   10.5090    6.4120 C   0  0  0  0  0  0  0  0  0  0  0  0
    1.2180    9.3070    6.7980 C   0  0  0  0  0  0  0  0  0  0  0  0
    0.4320    8.3040    7.3310 C   0  0  0  0  0  0  0  0  0  0  0  0
   -0.9290    8.4970    7.4800 C   0  0  0  0  0  0  0  0  0  0  0  0
   -1.5080    9.6930    7.0960 C   0  0  0  0  0  0  0  0  0  0  0  0
   -0.7270   10.7010    6.5680 C   0  0  0  0  0  0  0  0  0  0  0  0
   -0.1160   11.8560    4.1370 N   0  0  0  0  0  0  0  0  0  0  0  0
   -0.5260   12.5170    3.0590 C   0  0  0  0  0  0  0  0  0  0  0  0
   -1.7360   12.1310    2.3990 C   0  0  0  0  0  0  0  0  0  0  0  0
   -2.6970   11.8240    1.8760 N   0  0  0  0  0  0  0  0  0  0  0  0
    0.1860   13.5410    2.5970 N   0  0  0  0  0  0  0  0  0  0  0  0
    2.8730   15.2180    3.1730 H   0  0  0  0  0  0  0  0  0  0  0  0
    1.7570   15.4360    1.9370 H   0  0  0  0  0  0  0  0  0  0  0  0
    1.8860   13.5600    7.5030 H   0  0  0  0  0  0  0  0  0  0  0  0
    4.0420   14.1210    8.5480 H   0  0  0  0  0  0  0  0  0  0  0  0
    6.0260   12.7340    8.1040 H   0  0  0  0  0  0  0  0  0  0  0  0
    5.8600   10.7830    6.6140 H   0  0  0  0  0  0  0  0  0  0  0  0
    3.7070   10.2090    5.5690 H   0  0  0  0  0  0  0  0  0  0  0  0
    2.2810    9.1560    6.6810 H   0  0  0  0  0  0  0  0  0  0  0  0
    0.8810    7.3690    7.6310 H   0  0  0  0  0  0  0  0  0  0  0  0
   -1.5420    7.7110    7.8970 H   0  0  0  0  0  0  0  0  0  0  0  0
   -2.5710    9.8390    7.2140 H   0  0  0  0  0  0  0  0  0  0  0  0
   -1.1790   11.6350    6.2690 H   0  0  0  0  0  0  0  0  0  0  0  0
  1 23  1  0  0  0  0
  1 24  1  0  0  0  0
  1  2  1  0  0  0  0
  2  3  2  0  0  0  0
  3  4  1  0  0  0  0
  4  5  1  0  0  0  0
  5  6  1  0  0  0  0
  6  7  2  0  0  0  0
  7 25  1  0  0  0  0
  7  8  1  0  0  0  0
  8 26  1  0  0  0  0
  8  9  2  0  0  0  0
  9 27  1  0  0  0  0
  9 10  1  0  0  0  0
 10 28  1  0  0  0  0
 10 11  2  0  0  0  0
 11  6  1  0  0  0  0
 11 29  1  0  0  0  0
  5 12  1  0  0  0  0
 12 13  2  0  0  0  0
 13 30  1  0  0  0  0
 13 14  1  0  0  0  0
 14 31  1  0  0  0  0
 14 15  2  0  0  0  0
 15 32  1  0  0  0  0
 15 16  1  0  0  0  0
 16 33  1  0  0  0  0
 16 17  2  0  0  0  0
 17 12  1  0  0  0  0
 17 34  1  0  0  0  0
  4 18  2  0  0  0  0
 18 19  1  0  0  0  0
 19 20  1  0  0  0  0
 20 21  3  0  0  0  0
 19 22  2  0  0  0  0
 22  2  1  0  0  0  0
M  END
>  <EXTREG>  (61)
61

>  <pIC50>  (61)
7.1549

>  <COMFA_1>  (61)
112.0000

>  <CoMFA_2__1>  (61)
7.0418

$$$$
45
  -MTS-   04202218243D 0   0.00000     0.00000     0

 39 41  0  0  0  0  0  0  0  0999 V2000
   -1.4830   14.3770    7.7660 N   0  0  0  0  0  0  0  0  0  0  0  0
   -0.4720   13.9360    7.4940 C   0  0  0  0  0  0  0  0  0  0  0  0
    0.8020   13.3800    7.1510 C   0  0  0  0  0  0  0  0  0  0  0  0
    0.8990   12.0970    6.8160 N   0  0  0  0  0  0  0  0  0  0  0  0
    2.0830   11.5810    6.4970 C   0  0  0  0  0  0  0  0  0  0  0  0
    2.1840   10.2500    6.1490 N   0  0  0  0  0  0  0  0  0  0  0  0
    1.8180    9.2100    7.1140 C   0  0  0  0  0  0  0  0  0  0  0  0
    0.3090    9.2730    7.4100 C   0  0  0  0  0  0  0  0  0  0  0  0
   -0.2810    7.9140    6.9820 C   0  0  0  0  0  0  0  0  0  0  0  0
    0.9240    6.9420    7.0390 C   0  0  0  0  0  0  0  0  0  0  0  0
    2.0920    7.8140    6.5160 C   0  0  0  0  0  0  0  0  0  0  0  0
    3.1680   12.3480    6.5140 N   0  0  0  0  0  0  0  0  0  0  0  0
    3.0710   13.6300    6.8490 C   0  0  0  0  0  0  0  0  0  0  0  0
    4.2000   14.4270    6.8660 N   0  0  0  0  0  0  0  0  0  0  0  0
    5.0100   14.4670    8.0050 C   0  0  0  0  0  0  0  0  0  0  0  0
    5.1440   13.3390    8.8040 C   0  0  0  0  0  0  0  0  0  0  0  0
    5.9460   13.3820    9.9280 C   0  0  0  0  0  0  0  0  0  0  0  0
    6.0890   12.1810   10.7800 N   0  3  0  0  0  0  0  0  0  0  0  0
    7.1950   11.8150   11.1360 O   0  5  0  0  0  0  0  0  0  0  0  0
    5.1010   11.5570   11.1260 O   0  0  0  0  0  0  0  0  0  0  0  0
    6.6150   14.5470   10.2580 C   0  0  0  0  0  0  0  0  0  0  0  0
    6.4840   15.6720    9.4640 C   0  0  0  0  0  0  0  0  0  0  0  0
    5.6880   15.6340    8.3360 C   0  0  0  0  0  0  0  0  0  0  0  0
    1.8870   14.1480    7.1630 N   0  0  0  0  0  0  0  0  0  0  0  0
    2.4970   10.0020    5.2640 H   0  0  0  0  0  0  0  0  0  0  0  0
    2.3850    9.3400    8.0350 H   0  0  0  0  0  0  0  0  0  0  0  0
    0.1440    9.4330    8.4760 H   0  0  0  0  0  0  0  0  0  0  0  0
   -0.1510   10.0770    6.8360 H   0  0  0  0  0  0  0  0  0  0  0  0
   -1.0580    7.5990    7.6790 H   0  0  0  0  0  0  0  0  0  0  0  0
   -0.6770    7.9710    5.9680 H   0  0  0  0  0  0  0  0  0  0  0  0
    1.1110    6.6180    8.0630 H   0  0  0  0  0  0  0  0  0  0  0  0
    0.7600    6.0850    6.3860 H   0  0  0  0  0  0  0  0  0  0  0  0
    2.0790    7.8560    5.4270 H   0  0  0  0  0  0  0  0  0  0  0  0
    3.0460    7.4270    6.8730 H   0  0  0  0  0  0  0  0  0  0  0  0
    4.4300   14.9580    6.0880 H   0  0  0  0  0  0  0  0  0  0  0  0
    4.6210   12.4300    8.5470 H   0  0  0  0  0  0  0  0  0  0  0  0
    7.2400   14.5780   11.1370 H   0  0  0  0  0  0  0  0  0  0  0  0
    7.0070   16.5790    9.7240 H   0  0  0  0  0  0  0  0  0  0  0  0
    5.5860   16.5120    7.7160 H   0  0  0  0  0  0  0  0  0  0  0  0
  1  2  3  0  0  0  0
  2  3  1  0  0  0  0
  3  4  2  0  0  0  0
  4  5  1  0  0  0  0
  5  6  1  0  0  0  0
  6 25  1  0  0  0  0
  6  7  1  0  0  0  0
  7 26  1  0  0  0  0
  7  8  1  0  0  0  0
  8 27  1  0  0  0  0
  8 28  1  0  0  0  0
  8  9  1  0  0  0  0
  9 29  1  0  0  0  0
  9 30  1  0  0  0  0
  9 10  1  0  0  0  0
 10 31  1  0  0  0  0
 10 32  1  0  0  0  0
 10 11  1  0  0  0  0
 11  7  1  0  0  0  0
 11 33  1  0  0  0  0
 11 34  1  0  0  0  0
  5 12  2  0  0  0  0
 12 13  1  0  0  0  0
 13 14  1  0  0  0  0
 14 35  1  0  0  0  0
 14 15  1  0  0  0  0
 15 16  2  0  0  0  0
 16 36  1  0  0  0  0
 16 17  1  0  0  0  0
 17 18  1  0  0  0  0
 18 19  1  0  0  0  0
 18 20  2  0  0  0  0
 17 21  2  0  0  0  0
 21 37  1  0  0  0  0
 21 22  1  0  0  0  0
 22 38  1  0  0  0  0
 22 23  2  0  0  0  0
 23 15  1  0  0  0  0
 23 39  1  0  0  0  0
 13 24  2  0  0  0  0
 24  3  1  0  0  0  0
M  CHG  2  18   1  19  -1
M  END
>  <EXTREG>  (45)
45

>  <pIC50>  (45)
9.0000

>  <COMFA_1>  (45)
130.0000

>  <CoMFA_2__1>  (45)
9.0832

$$$$
46
  -MTS-   04202218243D 0   0.00000     0.00000     0

 37 39  0  0  0  0  0  0  0  0999 V2000
    2.6670   11.2090    6.5610 F   0  0  0  0  0  0  0  0  0  0  0  0
    1.7550   10.2220    6.7000 C   0  0  0  0  0  0  0  0  0  0  0  0
    2.1430    8.8980    6.5760 C   0  0  0  0  0  0  0  0  0  0  0  0
    1.2120    7.8860    6.7180 C   0  0  0  0  0  0  0  0  0  0  0  0
   -0.1090    8.1920    6.9820 C   0  0  0  0  0  0  0  0  0  0  0  0
   -0.5030    9.5180    7.1070 C   0  0  0  0  0  0  0  0  0  0  0  0
   -1.8390    9.8300    7.3750 N   0  0  0  0  0  0  0  0  0  0  0  0
   -2.8460    9.2660    6.6150 C   0  0  0  0  0  0  0  0  0  0  0  0
   -4.1160    9.5740    6.8610 N   0  0  0  0  0  0  0  0  0  0  0  0
   -5.0840    9.0320    6.1300 C   0  0  0  0  0  0  0  0  0  0  0  0
   -6.4520    9.3630    6.3940 C   0  0  0  0  0  0  0  0  0  0  0  0
   -7.5370    9.6260    6.6040 N   0  0  0  0  0  0  0  0  0  0  0  0
   -4.7830    8.1820    5.1520 N   0  0  0  0  0  0  0  0  0  0  0  0
   -3.5130    7.8750    4.9070 C   0  0  0  0  0  0  0  0  0  0  0  0
   -3.2000    6.9930    3.8920 N   0  0  0  0  0  0  0  0  0  0  0  0
   -1.8020    6.6340    3.6390 C   0  0  0  0  0  0  0  0  0  0  0  0
   -1.1830    6.0040    4.9000 C   0  0  0  0  0  0  0  0  0  0  0  0
   -0.7510    4.5750    4.5120 C   0  0  0  0  0  0  0  0  0  0  0  0
   -0.5660    4.6390    2.9750 C   0  0  0  0  0  0  0  0  0  0  0  0
   -1.7240    5.5650    2.5290 C   0  0  0  0  0  0  0  0  0  0  0  0
   -2.5450    8.4210    5.6350 N   0  0  0  0  0  0  0  0  0  0  0  0
    0.4340   10.5340    6.9710 C   0  0  0  0  0  0  0  0  0  0  0  0
    3.1750    8.6560    6.3690 H   0  0  0  0  0  0  0  0  0  0  0  0
    1.5180    6.8550    6.6210 H   0  0  0  0  0  0  0  0  0  0  0  0
   -0.8350    7.4000    7.0920 H   0  0  0  0  0  0  0  0  0  0  0  0
   -2.0590   10.4410    8.0950 H   0  0  0  0  0  0  0  0  0  0  0  0
   -3.9050    6.6110    3.3470 H   0  0  0  0  0  0  0  0  0  0  0  0
   -1.2360    7.5190    3.3480 H   0  0  0  0  0  0  0  0  0  0  0  0
   -0.3170    6.5830    5.2190 H   0  0  0  0  0  0  0  0  0  0  0  0
   -1.9230    5.9660    5.7000 H   0  0  0  0  0  0  0  0  0  0  0  0
    0.1890    4.3160    4.9990 H   0  0  0  0  0  0  0  0  0  0  0  0
   -1.5280    3.8570    4.7730 H   0  0  0  0  0  0  0  0  0  0  0  0
    0.4000    5.0770    2.7200 H   0  0  0  0  0  0  0  0  0  0  0  0
   -0.6710    3.6480    2.5320 H   0  0  0  0  0  0  0  0  0  0  0  0
   -2.6580    5.0070    2.4700 H   0  0  0  0  0  0  0  0  0  0  0  0
   -1.4940    6.0290    1.5700 H   0  0  0  0  0  0  0  0  0  0  0  0
    0.1310   11.5660    7.0670 H   0  0  0  0  0  0  0  0  0  0  0  0
  1  2  1  0  0  0  0
  2  3  2  0  0  0  0
  3 23  1  0  0  0  0
  3  4  1  0  0  0  0
  4 24  1  0  0  0  0
  4  5  2  0  0  0  0
  5 25  1  0  0  0  0
  5  6  1  0  0  0  0
  6  7  1  0  0  0  0
  7 26  1  0  0  0  0
  7  8  1  0  0  0  0
  8  9  2  0  0  0  0
  9 10  1  0  0  0  0
 10 11  1  0  0  0  0
 11 12  3  0  0  0  0
 10 13  2  0  0  0  0
 13 14  1  0  0  0  0
 14 15  1  0  0  0  0
 15 27  1  0  0  0  0
 15 16  1  0  0  0  0
 16 28  1  0  0  0  0
 16 17  1  0  0  0  0
 17 29  1  0  0  0  0
 17 30  1  0  0  0  0
 17 18  1  0  0  0  0
 18 31  1  0  0  0  0
 18 32  1  0  0  0  0
 18 19  1  0  0  0  0
 19 33  1  0  0  0  0
 19 34  1  0  0  0  0
 19 20  1  0  0  0  0
 20 16  1  0  0  0  0
 20 35  1  0  0  0  0
 20 36  1  0  0  0  0
 14 21  2  0  0  0  0
 21  8  1  0  0  0  0
  6 22  2  0  0  0  0
 22  2  1  0  0  0  0
 22 37  1  0  0  0  0
M  END
>  <EXTREG>  (46)
46

>  <pIC50>  (46)
8.0000

>  <COMFA_1>  (46)
112.0000

>  <CoMFA_2__1>  (46)
8.2052

$$$$
47
  -MTS-   04202218243D 0   0.00000     0.00000     0

 37 39  0  0  0  0  0  0  0  0999 V2000
   -1.0640    5.8260    5.0430 Cl  0  0  0  0  0  0  0  0  0  0  0  0
   -2.0960    7.1430    5.5060 C   0  0  0  0  0  0  0  0  0  0  0  0
   -3.4530    7.0840    5.2390 C   0  0  0  0  0  0  0  0  0  0  0  0
   -4.2790    8.1310    5.6070 C   0  0  0  0  0  0  0  0  0  0  0  0
   -3.7520    9.2380    6.2420 C   0  0  0  0  0  0  0  0  0  0  0  0
   -2.3900    9.3010    6.5110 C   0  0  0  0  0  0  0  0  0  0  0  0
   -1.8540   10.4210    7.1540 N   0  0  0  0  0  0  0  0  0  0  0  0
   -0.7390   11.0480    6.6330 C   0  0  0  0  0  0  0  0  0  0  0  0
   -0.7280   11.4350    5.3600 N   0  0  0  0  0  0  0  0  0  0  0  0
    0.3450   12.0380    4.8590 C   0  0  0  0  0  0  0  0  0  0  0  0
    0.3580   12.4550    3.4890 C   0  0  0  0  0  0  0  0  0  0  0  0
    0.3680   12.7850    2.4020 N   0  0  0  0  0  0  0  0  0  0  0  0
    1.4060   12.2560    5.6290 N   0  0  0  0  0  0  0  0  0  0  0  0
    1.3940   11.8690    6.9020 C   0  0  0  0  0  0  0  0  0  0  0  0
    2.4960   12.0950    7.7020 N   0  0  0  0  0  0  0  0  0  0  0  0
    3.6510   12.8220    7.1700 C   0  0  0  0  0  0  0  0  0  0  0  0
    3.2470   14.2610    6.8060 C   0  0  0  0  0  0  0  0  0  0  0  0
    4.1120   15.1960    7.6760 C   0  0  0  0  0  0  0  0  0  0  0  0
    5.3540   14.3410    8.0320 C   0  0  0  0  0  0  0  0  0  0  0  0
    4.7490   12.9320    8.2480 C   0  0  0  0  0  0  0  0  0  0  0  0
    0.3200   11.2710    7.4040 N   0  0  0  0  0  0  0  0  0  0  0  0
   -1.5640    8.2460    6.1460 C   0  0  0  0  0  0  0  0  0  0  0  0
   -3.8680    6.2190    4.7430 H   0  0  0  0  0  0  0  0  0  0  0  0
   -5.3370    8.0820    5.3970 H   0  0  0  0  0  0  0  0  0  0  0  0
   -4.3970   10.0550    6.5270 H   0  0  0  0  0  0  0  0  0  0  0  0
   -2.2650   10.7580    7.9660 H   0  0  0  0  0  0  0  0  0  0  0  0
    2.5050   11.7730    8.6170 H   0  0  0  0  0  0  0  0  0  0  0  0
    4.0410   12.3100    6.2900 H   0  0  0  0  0  0  0  0  0  0  0  0
    3.4410   14.4480    5.7500 H   0  0  0  0  0  0  0  0  0  0  0  0
    2.1910   14.4190    7.0260 H   0  0  0  0  0  0  0  0  0  0  0  0
    4.4070   16.0800    7.1100 H   0  0  0  0  0  0  0  0  0  0  0  0
    3.5750   15.4820    8.5800 H   0  0  0  0  0  0  0  0  0  0  0  0
    6.0670   14.3330    7.2070 H   0  0  0  0  0  0  0  0  0  0  0  0
    5.8240   14.7040    8.9450 H   0  0  0  0  0  0  0  0  0  0  0  0
    4.3140   12.8530    9.2450 H   0  0  0  0  0  0  0  0  0  0  0  0
    5.5080   12.1640    8.1000 H   0  0  0  0  0  0  0  0  0  0  0  0
   -0.5050    8.2910    6.3550 H   0  0  0  0  0  0  0  0  0  0  0  0
  1  2  1  0  0  0  0
  2  3  2  0  0  0  0
  3 23  1  0  0  0  0
  3  4  1  0  0  0  0
  4 24  1  0  0  0  0
  4  5  2  0  0  0  0
  5 25  1  0  0  0  0
  5  6  1  0  0  0  0
  6  7  1  0  0  0  0
  7 26  1  0  0  0  0
  7  8  1  0  0  0  0
  8  9  2  0  0  0  0
  9 10  1  0  0  0  0
 10 11  1  0  0  0  0
 11 12  3  0  0  0  0
 10 13  2  0  0  0  0
 13 14  1  0  0  0  0
 14 15  1  0  0  0  0
 15 27  1  0  0  0  0
 15 16  1  0  0  0  0
 16 28  1  0  0  0  0
 16 17  1  0  0  0  0
 17 29  1  0  0  0  0
 17 30  1  0  0  0  0
 17 18  1  0  0  0  0
 18 31  1  0  0  0  0
 18 32  1  0  0  0  0
 18 19  1  0  0  0  0
 19 33  1  0  0  0  0
 19 34  1  0  0  0  0
 19 20  1  0  0  0  0
 20 16  1  0  0  0  0
 20 35  1  0  0  0  0
 20 36  1  0  0  0  0
 14 21  2  0  0  0  0
 21  8  1  0  0  0  0
  6 22  2  0  0  0  0
 22  2  1  0  0  0  0
 22 37  1  0  0  0  0
M  END
>  <EXTREG>  (47)
47

>  <pIC50>  (47)
8.6990

>  <COMFA_1>  (47)
120.0000

>  <CoMFA_2__1>  (47)
8.3191

$$$$
48
  -MTS-   04202218243D 0   0.00000     0.00000     0

 37 39  0  0  0  0  0  0  0  0999 V2000
    3.0090   11.2530    6.5450 Br  0  0  0  0  0  0  0  0  0  0  0  0
    1.6170    9.9850    6.7210 C   0  0  0  0  0  0  0  0  0  0  0  0
    1.8900    8.6350    6.5910 C   0  0  0  0  0  0  0  0  0  0  0  0
    0.8750    7.7050    6.7200 C   0  0  0  0  0  0  0  0  0  0  0  0
   -0.4160    8.1210    6.9790 C   0  0  0  0  0  0  0  0  0  0  0  0
   -0.6950    9.4760    7.1090 C   0  0  0  0  0  0  0  0  0  0  0  0
   -2.0010    9.9000    7.3720 N   0  0  0  0  0  0  0  0  0  0  0  0
   -3.0340    9.5130    6.5390 C   0  0  0  0  0  0  0  0  0  0  0  0
   -4.2290   10.0830    6.6540 N   0  0  0  0  0  0  0  0  0  0  0  0
   -5.2230    9.7110    5.8530 C   0  0  0  0  0  0  0  0  0  0  0  0
   -6.5110   10.3250    5.9760 C   0  0  0  0  0  0  0  0  0  0  0  0
   -7.5320   10.8110    6.0740 N   0  0  0  0  0  0  0  0  0  0  0  0
   -5.0200    8.7700    4.9360 N   0  0  0  0  0  0  0  0  0  0  0  0
   -3.8240    8.2000    4.8220 C   0  0  0  0  0  0  0  0  0  0  0  0
   -3.6130    7.2230    3.8700 N   0  0  0  0  0  0  0  0  0  0  0  0
   -2.2810    7.0420    3.2880 C   0  0  0  0  0  0  0  0  0  0  0  0
   -1.3160    6.4770    4.3450 C   0  0  0  0  0  0  0  0  0  0  0  0
   -0.8210    5.1180    3.8080 C   0  0  0  0  0  0  0  0  0  0  0  0
   -1.0080    5.2240    2.2740 C   0  0  0  0  0  0  0  0  0  0  0  0
   -2.3390    6.0070    2.1460 C   0  0  0  0  0  0  0  0  0  0  0  0
   -2.8300    8.5760    5.6190 N   0  0  0  0  0  0  0  0  0  0  0  0
    0.3270   10.4080    6.9850 C   0  0  0  0  0  0  0  0  0  0  0  0
    2.8990    8.3070    6.3890 H   0  0  0  0  0  0  0  0  0  0  0  0
    1.0920    6.6520    6.6180 H   0  0  0  0  0  0  0  0  0  0  0  0
   -1.2090    7.3940    7.0780 H   0  0  0  0  0  0  0  0  0  0  0  0
   -2.1830   10.4660    8.1380 H   0  0  0  0  0  0  0  0  0  0  0  0
   -4.3470    6.6550    3.5870 H   0  0  0  0  0  0  0  0  0  0  0  0
   -1.9060    7.9940    2.9110 H   0  0  0  0  0  0  0  0  0  0  0  0
   -0.4720    7.1540    4.4800 H   0  0  0  0  0  0  0  0  0  0  0  0
   -1.8380    6.3370    5.2910 H   0  0  0  0  0  0  0  0  0  0  0  0
    0.2300    4.9700    4.0550 H   0  0  0  0  0  0  0  0  0  0  0  0
   -1.4260    4.3060    4.2110 H   0  0  0  0  0  0  0  0  0  0  0  0
   -0.1880    5.7810    1.8230 H   0  0  0  0  0  0  0  0  0  0  0  0
   -1.0980    4.2350    1.8270 H   0  0  0  0  0  0  0  0  0  0  0  0
   -3.1890    5.3380    2.2800 H   0  0  0  0  0  0  0  0  0  0  0  0
   -2.3950    6.5080    1.1790 H   0  0  0  0  0  0  0  0  0  0  0  0
    0.1140   11.4610    7.0860 H   0  0  0  0  0  0  0  0  0  0  0  0
  1  2  1  0  0  0  0
  2  3  2  0  0  0  0
  3 23  1  0  0  0  0
  3  4  1  0  0  0  0
  4 24  1  0  0  0  0
  4  5  2  0  0  0  0
  5 25  1  0  0  0  0
  5  6  1  0  0  0  0
  6  7  1  0  0  0  0
  7 26  1  0  0  0  0
  7  8  1  0  0  0  0
  8  9  2  0  0  0  0
  9 10  1  0  0  0  0
 10 11  1  0  0  0  0
 11 12  3  0  0  0  0
 10 13  2  0  0  0  0
 13 14  1  0  0  0  0
 14 15  1  0  0  0  0
 15 27  1  0  0  0  0
 15 16  1  0  0  0  0
 16 28  1  0  0  0  0
 16 17  1  0  0  0  0
 17 29  1  0  0  0  0
 17 30  1  0  0  0  0
 17 18  1  0  0  0  0
 18 31  1  0  0  0  0
 18 32  1  0  0  0  0
 18 19  1  0  0  0  0
 19 33  1  0  0  0  0
 19 34  1  0  0  0  0
 19 20  1  0  0  0  0
 20 16  1  0  0  0  0
 20 35  1  0  0  0  0
 20 36  1  0  0  0  0
 14 21  2  0  0  0  0
 21  8  1  0  0  0  0
  6 22  2  0  0  0  0
 22  2  1  0  0  0  0
 22 37  1  0  0  0  0
M  END
>  <EXTREG>  (48)
48

>  <pIC50>  (48)
8.6990

>  <COMFA_1>  (48)
122.0000

>  <CoMFA_2__1>  (48)
8.4597

$$$$
51
  -MTS-   04202218243D 0   0.00000     0.00000     0

 37 39  0  0  0  0  0  0  0  0999 V2000
    1.2140   11.4950   -1.5510 Br  0  0  0  0  0  0  0  0  0  0  0  0
    1.2340   12.3670    0.1270 C   0  0  0  0  0  0  0  0  0  0  0  0
    1.9310   13.5530    0.2810 C   0  0  0  0  0  0  0  0  0  0  0  0
    1.9460   14.1920    1.5040 C   0  0  0  0  0  0  0  0  0  0  0  0
    1.2630   13.6440    2.5820 C   0  0  0  0  0  0  0  0  0  0  0  0
    0.5590   12.4570    2.4230 C   0  0  0  0  0  0  0  0  0  0  0  0
    0.5470   11.8220    1.1970 C   0  0  0  0  0  0  0  0  0  0  0  0
    1.2770   14.2890    3.8230 N   0  0  0  0  0  0  0  0  0  0  0  0
    1.6200   13.5880    4.9620 C   0  0  0  0  0  0  0  0  0  0  0  0
    1.7460   14.2260    6.1220 N   0  0  0  0  0  0  0  0  0  0  0  0
    2.0760   13.5510    7.2190 C   0  0  0  0  0  0  0  0  0  0  0  0
    2.2120   14.2370    8.4690 C   0  0  0  0  0  0  0  0  0  0  0  0
    2.3190   14.7820    9.4600 N   0  0  0  0  0  0  0  0  0  0  0  0
    2.2790   12.2390    7.1560 N   0  0  0  0  0  0  0  0  0  0  0  0
    2.1530   11.6020    5.9950 C   0  0  0  0  0  0  0  0  0  0  0  0
    2.3640   10.2390    5.9300 N   0  0  0  0  0  0  0  0  0  0  0  0
    1.9660    9.3820    7.0490 C   0  0  0  0  0  0  0  0  0  0  0  0
    0.4550    9.5170    7.3060 C   0  0  0  0  0  0  0  0  0  0  0  0
   -0.1550    8.1150    7.1020 C   0  0  0  0  0  0  0  0  0  0  0  0
    1.0310    7.1470    7.3400 C   0  0  0  0  0  0  0  0  0  0  0  0
    2.2220    7.9010    6.6980 C   0  0  0  0  0  0  0  0  0  0  0  0
    1.8180   12.2750    4.9000 N   0  0  0  0  0  0  0  0  0  0  0  0
    2.4620   13.9780   -0.5580 H   0  0  0  0  0  0  0  0  0  0  0  0
    2.4910   15.1170    1.6240 H   0  0  0  0  0  0  0  0  0  0  0  0
    0.0220   12.0310    3.2580 H   0  0  0  0  0  0  0  0  0  0  0  0
    0.0000   10.8990    1.0730 H   0  0  0  0  0  0  0  0  0  0  0  0
    1.0460   15.2300    3.8830 H   0  0  0  0  0  0  0  0  0  0  0  0
    2.7750    9.8490    5.1430 H   0  0  0  0  0  0  0  0  0  0  0  0
    2.5230    9.6550    7.9450 H   0  0  0  0  0  0  0  0  0  0  0  0
    0.2790    9.8560    8.3270 H   0  0  0  0  0  0  0  0  0  0  0  0
    0.0170   10.2210    6.5980 H   0  0  0  0  0  0  0  0  0  0  0  0
   -0.9470    7.9340    7.8290 H   0  0  0  0  0  0  0  0  0  0  0  0
   -0.5360    8.0090    6.0860 H   0  0  0  0  0  0  0  0  0  0  0  0
    1.1990    6.9970    8.4060 H   0  0  0  0  0  0  0  0  0  0  0  0
    0.8600    6.1960    6.8360 H   0  0  0  0  0  0  0  0  0  0  0  0
    2.2240    7.7610    5.6170 H   0  0  0  0  0  0  0  0  0  0  0  0
    3.1640    7.5640    7.1300 H   0  0  0  0  0  0  0  0  0  0  0  0
  1  2  1  0  0  0  0
  2  3  2  0  0  0  0
  3 23  1  0  0  0  0
  3  4  1  0  0  0  0
  4 24  1  0  0  0  0
  4  5  2  0  0  0  0
  5  6  1  0  0  0  0
  6 25  1  0  0  0  0
  6  7  2  0  0  0  0
  7  2  1  0  0  0  0
  7 26  1  0  0  0  0
  5  8  1  0  0  0  0
  8 27  1  0  0  0  0
  8  9  1  0  0  0  0
  9 10  2  0  0  0  0
 10 11  1  0  0  0  0
 11 12  1  0  0  0  0
 12 13  3  0  0  0  0
 11 14  2  0  0  0  0
 14 15  1  0  0  0  0
 15 16  1  0  0  0  0
 16 28  1  0  0  0  0
 16 17  1  0  0  0  0
 17 29  1  0  0  0  0
 17 18  1  0  0  0  0
 18 30  1  0  0  0  0
 18 31  1  0  0  0  0
 18 19  1  0  0  0  0
 19 32  1  0  0  0  0
 19 33  1  0  0  0  0
 19 20  1  0  0  0  0
 20 34  1  0  0  0  0
 20 35  1  0  0  0  0
 20 21  1  0  0  0  0
 21 17  1  0  0  0  0
 21 36  1  0  0  0  0
 21 37  1  0  0  0  0
 15 22  2  0  0  0  0
 22  9  1  0  0  0  0
M  END
>  <EXTREG>  (51)
51

>  <pIC50>  (51)
7.2218

>  <COMFA_1>  (51)
128.0000

>  <CoMFA_2__1>  (51)
7.1348

$$$$
53
  -MTS-   04202218243D 0   0.00000     0.00000     0

 40 42  0  0  0  0  0  0  0  0999 V2000
    2.3760   14.6760    9.4080 N   0  0  0  0  0  0  0  0  0  0  0  0
    2.3170   14.1250    8.4160 C   0  0  0  0  0  0  0  0  0  0  0  0
    2.2430   13.4300    7.1660 C   0  0  0  0  0  0  0  0  0  0  0  0
    2.4150   12.1130    7.1260 N   0  0  0  0  0  0  0  0  0  0  0  0
    2.3470   11.4680    5.9650 C   0  0  0  0  0  0  0  0  0  0  0  0
    2.5250   10.1000    5.9240 N   0  0  0  0  0  0  0  0  0  0  0  0
    2.2080    9.2840    7.0990 C   0  0  0  0  0  0  0  0  0  0  0  0
    0.7820    9.5970    7.5880 C   0  0  0  0  0  0  0  0  0  0  0  0
   -0.0150    8.2800    7.4930 C   0  0  0  0  0  0  0  0  0  0  0  0
    1.0690    7.1750    7.5500 C   0  0  0  0  0  0  0  0  0  0  0  0
    2.2260    7.7880    6.7230 C   0  0  0  0  0  0  0  0  0  0  0  0
    2.1060   12.1410    4.8450 N   0  0  0  0  0  0  0  0  0  0  0  0
    1.9340   13.4580    4.8840 C   0  0  0  0  0  0  0  0  0  0  0  0
    1.6840   14.1570    3.7190 N   0  0  0  0  0  0  0  0  0  0  0  0
    0.7860   13.6460    2.7760 C   0  0  0  0  0  0  0  0  0  0  0  0
    1.2360   13.2820    1.5140 C   0  0  0  0  0  0  0  0  0  0  0  0
    0.3470   12.7770    0.5850 C   0  0  0  0  0  0  0  0  0  0  0  0
    0.8340   12.3810   -0.7850 C   0  0  0  0  0  0  0  0  0  0  0  0
    2.2300   12.2900   -0.7760 F   0  0  0  0  0  0  0  0  0  0  0  0
    0.2880   11.1420   -1.1350 F   0  0  0  0  0  0  0  0  0  0  0  0
    0.4360   13.3450   -1.7180 F   0  0  0  0  0  0  0  0  0  0  0  0
   -0.9890   12.6330    0.9110 C   0  0  0  0  0  0  0  0  0  0  0  0
   -1.4400   12.9940    2.1680 C   0  0  0  0  0  0  0  0  0  0  0  0
   -0.5560   13.4950    3.1030 C   0  0  0  0  0  0  0  0  0  0  0  0
    1.9980   14.1020    6.0460 N   0  0  0  0  0  0  0  0  0  0  0  0
    2.8610    9.6790    5.1170 H   0  0  0  0  0  0  0  0  0  0  0  0
    2.9270    9.4790    7.8940 H   0  0  0  0  0  0  0  0  0  0  0  0
    0.8100    9.9430    8.6210 H   0  0  0  0  0  0  0  0  0  0  0  0
    0.3270   10.3560    6.9510 H   0  0  0  0  0  0  0  0  0  0  0  0
   -0.6990    8.1870    8.3360 H   0  0  0  0  0  0  0  0  0  0  0  0
   -0.5600    8.2310    6.5510 H   0  0  0  0  0  0  0  0  0  0  0  0
    1.3820    6.9940    8.5780 H   0  0  0  0  0  0  0  0  0  0  0  0
    0.7080    6.2560    7.0870 H   0  0  0  0  0  0  0  0  0  0  0  0
    2.0430    7.6600    5.6570 H   0  0  0  0  0  0  0  0  0  0  0  0
    3.1770    7.3360    7.0050 H   0  0  0  0  0  0  0  0  0  0  0  0
    2.1300   15.0020    3.5550 H   0  0  0  0  0  0  0  0  0  0  0  0
    2.2790   13.3940    1.2580 H   0  0  0  0  0  0  0  0  0  0  0  0
   -1.6820   12.2380    0.1830 H   0  0  0  0  0  0  0  0  0  0  0  0
   -2.4840   12.8810    2.4190 H   0  0  0  0  0  0  0  0  0  0  0  0
   -0.9080   13.7780    4.0830 H   0  0  0  0  0  0  0  0  0  0  0  0
  1  2  3  0  0  0  0
  2  3  1  0  0  0  0
  3  4  2  0  0  0  0
  4  5  1  0  0  0  0
  5  6  1  0  0  0  0
  6 26  1  0  0  0  0
  6  7  1  0  0  0  0
  7 27  1  0  0  0  0
  7  8  1  0  0  0  0
  8 28  1  0  0  0  0
  8 29  1  0  0  0  0
  8  9  1  0  0  0  0
  9 30  1  0  0  0  0
  9 31  1  0  0  0  0
  9 10  1  0  0  0  0
 10 32  1  0  0  0  0
 10 33  1  0  0  0  0
 10 11  1  0  0  0  0
 11  7  1  0  0  0  0
 11 34  1  0  0  0  0
 11 35  1  0  0  0  0
  5 12  2  0  0  0  0
 12 13  1  0  0  0  0
 13 14  1  0  0  0  0
 14 36  1  0  0  0  0
 14 15  1  0  0  0  0
 15 16  2  0  0  0  0
 16 37  1  0  0  0  0
 16 17  1  0  0  0  0
 17 18  1  0  0  0  0
 18 19  1  0  0  0  0
 18 20  1  0  0  0  0
 18 21  1  0  0  0  0
 17 22  2  0  0  0  0
 22 38  1  0  0  0  0
 22 23  1  0  0  0  0
 23 39  1  0  0  0  0
 23 24  2  0  0  0  0
 24 15  1  0  0  0  0
 24 40  1  0  0  0  0
 13 25  2  0  0  0  0
 25  3  1  0  0  0  0
M  END
>  <EXTREG>  (53)
53

>  <pIC50>  (53)
7.3979

>  <COMFA_1>  (53)
132.0000

>  <CoMFA_2__1>  (53)
7.2708

$$$$
54
  -MTS-   04202218243D 0   0.00000     0.00000     0

 37 39  0  0  0  0  0  0  0  0999 V2000
    2.1490    8.9270    6.7820 F   0  0  0  0  0  0  0  0  0  0  0  0
    0.8540    8.6110    6.5580 C   0  0  0  0  0  0  0  0  0  0  0  0
    0.5350    7.4700    5.8410 C   0  0  0  0  0  0  0  0  0  0  0  0
   -0.7910    7.1440    5.6100 C   0  0  0  0  0  0  0  0  0  0  0  0
   -1.1000    6.0310    4.9100 F   0  0  0  0  0  0  0  0  0  0  0  0
   -1.7990    7.9580    6.0950 C   0  0  0  0  0  0  0  0  0  0  0  0
   -1.4810    9.1020    6.8140 C   0  0  0  0  0  0  0  0  0  0  0  0
   -2.4980    9.9250    7.3060 N   0  0  0  0  0  0  0  0  0  0  0  0
   -3.6460   10.1250    6.5630 C   0  0  0  0  0  0  0  0  0  0  0  0
   -3.5990   10.0530    5.2360 N   0  0  0  0  0  0  0  0  0  0  0  0
   -4.7040   10.2450    4.5210 C   0  0  0  0  0  0  0  0  0  0  0  0
   -4.6540   10.1670    3.0920 C   0  0  0  0  0  0  0  0  0  0  0  0
   -4.6140   10.1060    1.9580 N   0  0  0  0  0  0  0  0  0  0  0  0
   -5.8540   10.5080    5.1330 N   0  0  0  0  0  0  0  0  0  0  0  0
   -5.9000   10.5790    6.4600 C   0  0  0  0  0  0  0  0  0  0  0  0
   -7.0950   10.8530    7.0950 N   0  0  0  0  0  0  0  0  0  0  0  0
   -7.1700   10.8230    8.5580 C   0  0  0  0  0  0  0  0  0  0  0  0
   -8.3900   11.6280    9.0390 C   0  0  0  0  0  0  0  0  0  0  0  0
   -9.2950   10.6400    9.8050 C   0  0  0  0  0  0  0  0  0  0  0  0
   -8.3310    9.5160   10.2590 C   0  0  0  0  0  0  0  0  0  0  0  0
   -7.3760    9.3750    9.0480 C   0  0  0  0  0  0  0  0  0  0  0  0
   -4.7970   10.3830    7.1750 N   0  0  0  0  0  0  0  0  0  0  0  0
   -0.1510    9.4250    7.0490 C   0  0  0  0  0  0  0  0  0  0  0  0
    1.3210    6.8340    5.4620 H   0  0  0  0  0  0  0  0  0  0  0  0
   -2.8330    7.7030    5.9140 H   0  0  0  0  0  0  0  0  0  0  0  0
   -2.3980   10.3570    8.1690 H   0  0  0  0  0  0  0  0  0  0  0  0
   -7.8840   11.0640    6.5730 H   0  0  0  0  0  0  0  0  0  0  0  0
   -6.2570   11.2370    8.9870 H   0  0  0  0  0  0  0  0  0  0  0  0
   -8.0690   12.4310    9.7030 H   0  0  0  0  0  0  0  0  0  0  0  0
   -8.9260   12.0400    8.1840 H   0  0  0  0  0  0  0  0  0  0  0  0
   -9.7460   11.1280   10.6690 H   0  0  0  0  0  0  0  0  0  0  0  0
  -10.0650   10.2400    9.1460 H   0  0  0  0  0  0  0  0  0  0  0  0
   -7.7820    9.8150   11.1510 H   0  0  0  0  0  0  0  0  0  0  0  0
   -8.8760    8.5870   10.4310 H   0  0  0  0  0  0  0  0  0  0  0  0
   -7.8360    8.7700    8.2670 H   0  0  0  0  0  0  0  0  0  0  0  0
   -6.4270    8.9390    9.3600 H   0  0  0  0  0  0  0  0  0  0  0  0
    0.0990   10.3140    7.6090 H   0  0  0  0  0  0  0  0  0  0  0  0
  1  2  1  0  0  0  0
  2  3  2  0  0  0  0
  3 24  1  0  0  0  0
  3  4  1  0  0  0  0
  4  5  1  0  0  0  0
  4  6  2  0  0  0  0
  6 25  1  0  0  0  0
  6  7  1  0  0  0  0
  7  8  1  0  0  0  0
  8 26  1  0  0  0  0
  8  9  1  0  0  0  0
  9 10  2  0  0  0  0
 10 11  1  0  0  0  0
 11 12  1  0  0  0  0
 12 13  3  0  0  0  0
 11 14  2  0  0  0  0
 14 15  1  0  0  0  0
 15 16  1  0  0  0  0
 16 27  1  0  0  0  0
 16 17  1  0  0  0  0
 17 28  1  0  0  0  0
 17 18  1  0  0  0  0
 18 29  1  0  0  0  0
 18 30  1  0  0  0  0
 18 19  1  0  0  0  0
 19 31  1  0  0  0  0
 19 32  1  0  0  0  0
 19 20  1  0  0  0  0
 20 33  1  0  0  0  0
 20 34  1  0  0  0  0
 20 21  1  0  0  0  0
 21 17  1  0  0  0  0
 21 35  1  0  0  0  0
 21 36  1  0  0  0  0
 15 22  2  0  0  0  0
 22  9  1  0  0  0  0
  7 23  2  0  0  0  0
 23  2  1  0  0  0  0
 23 37  1  0  0  0  0
M  END
>  <EXTREG>  (54)
54

>  <pIC50>  (54)
8.3979

>  <COMFA_1>  (54)
118.0000

>  <CoMFA_2__1>  (54)
8.2436

$$$$
57
  -MTS-   04202218243D 0   0.00000     0.00000     0

 30 31  0  0  0  0  0  0  0  0999 V2000
   -5.5380    7.9830    5.4810 F   0  0  0  0  0  0  0  0  0  0  0  0
   -4.2100    8.0760    5.7080 C   0  0  0  0  0  0  0  0  0  0  0  0
   -3.3710    7.0370    5.3420 C   0  0  0  0  0  0  0  0  0  0  0  0
   -2.0090    7.1300    5.5740 C   0  0  0  0  0  0  0  0  0  0  0  0
   -1.1920    6.1150    5.2160 F   0  0  0  0  0  0  0  0  0  0  0  0
   -1.4840    8.2610    6.1720 C   0  0  0  0  0  0  0  0  0  0  0  0
   -2.3230    9.3050    6.5400 C   0  0  0  0  0  0  0  0  0  0  0  0
   -1.7950   10.4490    7.1440 N   0  0  0  0  0  0  0  0  0  0  0  0
   -0.6460   11.0280    6.6400 C   0  0  0  0  0  0  0  0  0  0  0  0
   -0.6020   11.4240    5.3720 N   0  0  0  0  0  0  0  0  0  0  0  0
    0.5030   11.9810    4.8870 C   0  0  0  0  0  0  0  0  0  0  0  0
    0.5500   12.4070    3.5200 C   0  0  0  0  0  0  0  0  0  0  0  0
    0.5870   12.7460    2.4370 N   0  0  0  0  0  0  0  0  0  0  0  0
    1.5640   12.1430    5.6700 N   0  0  0  0  0  0  0  0  0  0  0  0
    1.5200   11.7470    6.9390 C   0  0  0  0  0  0  0  0  0  0  0  0
    2.6220   11.9150    7.7530 N   0  0  0  0  0  0  0  0  0  0  0  0
    3.8740   12.4320    7.1940 C   0  0  0  0  0  0  0  0  0  0  0  0
    4.4000   13.5630    8.0800 C   0  0  0  0  0  0  0  0  0  0  0  0
    5.1170   13.0200    9.1520 F   0  0  0  0  0  0  0  0  0  0  0  0
    5.2400   14.3920    7.3290 F   0  0  0  0  0  0  0  0  0  0  0  0
    0.4140   11.1950    7.4250 N   0  0  0  0  0  0  0  0  0  0  0  0
   -3.6880    9.2110    6.3020 C   0  0  0  0  0  0  0  0  0  0  0  0
   -3.7790    6.1530    4.8750 H   0  0  0  0  0  0  0  0  0  0  0  0
   -0.4210    8.3340    6.3530 H   0  0  0  0  0  0  0  0  0  0  0  0
   -2.2340   10.8370    7.9170 H   0  0  0  0  0  0  0  0  0  0  0  0
    2.5680   11.6910    8.6950 H   0  0  0  0  0  0  0  0  0  0  0  0
    4.6110   11.6310    7.1510 H   0  0  0  0  0  0  0  0  0  0  0  0
    3.6930   12.8130    6.1890 H   0  0  0  0  0  0  0  0  0  0  0  0
    3.5610   14.1460    8.4620 H   0  0  0  0  0  0  0  0  0  0  0  0
   -4.3430   10.0210    6.5880 H   0  0  0  0  0  0  0  0  0  0  0  0
  1  2  1  0  0  0  0
  2  3  2  0  0  0  0
  3 23  1  0  0  0  0
  3  4  1  0  0  0  0
  4  5  1  0  0  0  0
  4  6  2  0  0  0  0
  6 24  1  0  0  0  0
  6  7  1  0  0  0  0
  7  8  1  0  0  0  0
  8 25  1  0  0  0  0
  8  9  1  0  0  0  0
  9 10  2  0  0  0  0
 10 11  1  0  0  0  0
 11 12  1  0  0  0  0
 12 13  3  0  0  0  0
 11 14  2  0  0  0  0
 14 15  1  0  0  0  0
 15 16  1  0  0  0  0
 16 26  1  0  0  0  0
 16 17  1  0  0  0  0
 17 27  1  0  0  0  0
 17 28  1  0  0  0  0
 17 18  1  0  0  0  0
 18 29  1  0  0  0  0
 18 19  1  0  0  0  0
 18 20  1  0  0  0  0
 15 21  2  0  0  0  0
 21  9  1  0  0  0  0
  7 22  2  0  0  0  0
 22  2  1  0  0  0  0
 22 30  1  0  0  0  0
M  END
>  <EXTREG>  (57)
57

>  <pIC50>  (57)
9.0000

>  <COMFA_1>  (57)
108.0000

>  <CoMFA_2__1>  (57)
9.4274

$$$$
5
  -MTS-   04202218243D 0   0.00000     0.00000     0

 49 50  0  0  0  0  0  0  0  0999 V2000
    6.4900   12.4290    9.2710 O   0  0  0  0  0  0  0  0  0  0  0  0
    5.3900   12.7230    9.6740 C   0  0  0  0  0  0  0  0  0  0  0  0
    4.3070   12.4510    8.9300 O   0  0  0  0  0  0  0  0  0  0  0  0
    4.4220   12.3610    7.4850 C   0  0  0  0  0  0  0  0  0  0  0  0
    3.4380   11.3460    6.9650 C   0  0  0  0  0  0  0  0  0  0  0  0
    2.3740   10.9930    7.7130 N   0  0  0  0  0  0  0  0  0  0  0  0
    1.5240    9.9660    7.2820 C   0  0  0  0  0  0  0  0  0  0  0  0
    2.0550    8.8280    6.6910 C   0  0  0  0  0  0  0  0  0  0  0  0
    1.2180    7.8140    6.2670 C   0  0  0  0  0  0  0  0  0  0  0  0
   -0.1540    7.9330    6.4320 C   0  0  0  0  0  0  0  0  0  0  0  0
   -0.9780    6.9350    6.0150 O   0  0  0  0  0  0  0  0  0  0  0  0
   -0.3380    6.3090    4.9010 C   0  0  0  0  0  0  0  0  0  0  0  0
   -0.6860    9.0710    7.0240 C   0  0  0  0  0  0  0  0  0  0  0  0
   -2.4030    9.2190    7.2310 Cl  0  0  0  0  0  0  0  0  0  0  0  0
    0.1510   10.0830    7.4530 C   0  0  0  0  0  0  0  0  0  0  0  0
    3.6040   10.8450    5.8720 O   0  0  0  0  0  0  0  0  0  0  0  0
    5.2330   13.3900   11.0160 C   0  0  0  0  0  0  0  0  0  0  0  0
    4.6240   12.4000   12.0110 C   0  0  0  0  0  0  0  0  0  0  0  0
    4.1230   13.1560   13.2430 C   0  0  0  0  0  0  0  0  0  0  0  0
    3.0290   14.1400   12.8270 C   0  0  0  0  0  0  0  0  0  0  0  0
    3.5550   12.1600   14.2560 C   0  0  0  0  0  0  0  0  0  0  0  0
    6.5450   13.8250   11.5020 N   0  0  0  0  0  0  0  0  0  0  0  0
    7.5070   13.0100   11.9710 C   0  0  0  0  0  0  0  0  0  0  0  0
    8.6720   13.8350   12.3580 C   0  0  0  0  0  0  0  0  0  0  0  0
   10.1720   13.2640   13.0190 Cl  0  0  0  0  0  0  0  0  0  0  0  0
    8.3440   15.1160   12.0980 C   0  0  0  0  0  0  0  0  0  0  0  0
    9.3400   16.5130   12.3590 Cl  0  0  0  0  0  0  0  0  0  0  0  0
    6.9740   15.1000   11.5410 C   0  0  0  0  0  0  0  0  0  0  0  0
    6.3400   16.0730   11.1870 O   0  0  0  0  0  0  0  0  0  0  0  0
    7.4310   11.8020   12.0620 O   0  0  0  0  0  0  0  0  0  0  0  0
    4.2090   13.3340    7.0420 H   0  0  0  0  0  0  0  0  0  0  0  0
    5.4340   12.0550    7.2200 H   0  0  0  0  0  0  0  0  0  0  0  0
    2.1960   11.4510    8.5490 H   0  0  0  0  0  0  0  0  0  0  0  0
    3.1240    8.7350    6.5610 H   0  0  0  0  0  0  0  0  0  0  0  0
    1.6310    6.9300    5.8060 H   0  0  0  0  0  0  0  0  0  0  0  0
   -0.9640    5.4980    4.5300 H   0  0  0  0  0  0  0  0  0  0  0  0
   -0.1870    7.0430    4.1090 H   0  0  0  0  0  0  0  0  0  0  0  0
    0.6270    5.9100    5.2140 H   0  0  0  0  0  0  0  0  0  0  0  0
   -0.2630   10.9680    7.9130 H   0  0  0  0  0  0  0  0  0  0  0  0
    4.5770   14.2560   10.9180 H   0  0  0  0  0  0  0  0  0  0  0  0
    3.7900   11.8790   11.5400 H   0  0  0  0  0  0  0  0  0  0  0  0
    5.3810   11.6760   12.3120 H   0  0  0  0  0  0  0  0  0  0  0  0
    4.9510   13.7030   13.6950 H   0  0  0  0  0  0  0  0  0  0  0  0
    2.2010   13.5940   12.3740 H   0  0  0  0  0  0  0  0  0  0  0  0
    2.6720   14.6790   13.7040 H   0  0  0  0  0  0  0  0  0  0  0  0
    3.4330   14.8500   12.1050 H   0  0  0  0  0  0  0  0  0  0  0  0
    2.7850   11.5560   13.7790 H   0  0  0  0  0  0  0  0  0  0  0  0
    4.3550   11.5120   14.6160 H   0  0  0  0  0  0  0  0  0  0  0  0
    3.1220   12.7040   15.0960 H   0  0  0  0  0  0  0  0  0  0  0  0
  1  2  2  0  0  0  0
  2  3  1  0  0  0  0
  3  4  1  0  0  0  0
  4 31  1  0  0  0  0
  4 32  1  0  0  0  0
  4  5  1  0  0  0  0
  5  6  1  0  0  0  0
  6 33  1  0  0  0  0
  6  7  1  0  0  0  0
  7  8  2  0  0  0  0
  8 34  1  0  0  0  0
  8  9  1  0  0  0  0
  9 35  1  0  0  0  0
  9 10  2  0  0  0  0
 10 11  1  0  0  0  0
 11 12  1  0  0  0  0
 12 36  1  0  0  0  0
 12 37  1  0  0  0  0
 12 38  1  0  0  0  0
 10 13  1  0  0  0  0
 13 14  1  0  0  0  0
 13 15  2  0  0  0  0
 15  7  1  0  0  0  0
 15 39  1  0  0  0  0
  5 16  2  0  0  0  0
  2 17  1  0  0  0  0
 17 40  1  0  0  0  0
 17 18  1  0  0  0  0
 18 41  1  0  0  0  0
 18 42  1  0  0  0  0
 18 19  1  0  0  0  0
 19 43  1  0  0  0  0
 19 20  1  0  0  0  0
 20 44  1  0  0  0  0
 20 45  1  0  0  0  0
 20 46  1  0  0  0  0
 19 21  1  0  0  0  0
 21 47  1  0  0  0  0
 21 48  1  0  0  0  0
 21 49  1  0  0  0  0
 17 22  1  0  0  0  0
 22 23  1  0  0  0  0
 23 24  1  0  0  0  0
 24 25  1  0  0  0  0
 24 26  2  0  0  0  0
 26 27  1  0  0  0  0
 26 28  1  0  0  0  0
 28 22  1  0  0  0  0
 28 29  2  0  0  0  0
 23 30  2  0  0  0  0
M  END
>  <EXTREG>  (5)
5

>  <pIC50>  (5)
6.2218

>  <COMFA_1>  (5)
164.0000

>  <CoMFA_2__1>  (5)
6.2361

$$$$
11
  -MTS-   04202218243D 0   0.00000     0.00000     0

 55 57  0  0  0  0  0  0  0  0999 V2000
    5.0030   15.1820    7.8170 O   0  0  0  0  0  0  0  0  0  0  0  0
    5.1510   14.1420    8.4120 C   0  0  0  0  0  0  0  0  0  0  0  0
    4.3820   13.0830    8.1130 O   0  0  0  0  0  0  0  0  0  0  0  0
    3.2900   13.2230    7.1670 C   0  0  0  0  0  0  0  0  0  0  0  0
    2.7860   11.8570    6.7750 C   0  0  0  0  0  0  0  0  0  0  0  0
    1.9100   11.2090    7.5680 N   0  0  0  0  0  0  0  0  0  0  0  0
    1.5330    9.8960    7.2670 C   0  0  0  0  0  0  0  0  0  0  0  0
    2.4780    8.9890    6.8040 C   0  0  0  0  0  0  0  0  0  0  0  0
    2.1030    7.6940    6.5080 C   0  0  0  0  0  0  0  0  0  0  0  0
    0.7880    7.2980    6.6720 C   0  0  0  0  0  0  0  0  0  0  0  0
   -0.1550    8.1980    7.1320 C   0  0  0  0  0  0  0  0  0  0  0  0
    0.2150    9.4940    7.4360 C   0  0  0  0  0  0  0  0  0  0  0  0
    3.1700   11.3420    5.7470 O   0  0  0  0  0  0  0  0  0  0  0  0
    6.2020   14.0300    9.4860 C   0  0  0  0  0  0  0  0  0  0  0  0
    6.8850   15.3870    9.6750 C   0  0  0  0  0  0  0  0  0  0  0  0
    8.2190   15.1900   10.3970 C   0  0  0  0  0  0  0  0  0  0  0  0
    8.9620   16.5260   10.4680 C   0  0  0  0  0  0  0  0  0  0  0  0
    7.9600   14.6750   11.8150 C   0  0  0  0  0  0  0  0  0  0  0  0
    5.5740   13.6200   10.7440 N   0  0  0  0  0  0  0  0  0  0  0  0
    5.9300   12.4990   11.4240 C   0  0  0  0  0  0  0  0  0  0  0  0
    4.8670   12.2810   12.4580 C   0  0  0  0  0  0  0  0  0  0  0  0
    5.2790   11.7180   13.8020 C   0  0  0  0  0  0  0  0  0  0  0  0
    4.1120   11.9310   14.7440 C   0  0  0  0  0  0  0  0  0  0  0  0
    3.1450   12.7710   14.5340 C   0  0  0  0  0  0  0  0  0  0  0  0
    3.0510   13.6840   13.3290 C   0  0  0  0  0  0  0  0  0  0  0  0
    4.4370   13.7570   12.7240 C   0  0  0  0  0  0  0  0  0  0  0  0
    4.5830   14.3270   11.3470 C   0  0  0  0  0  0  0  0  0  0  0  0
    3.9420   15.2360   10.8640 O   0  0  0  0  0  0  0  0  0  0  0  0
    6.9110   11.8130   11.2330 O   0  0  0  0  0  0  0  0  0  0  0  0
    2.4810   13.7900    7.6270 H   0  0  0  0  0  0  0  0  0  0  0  0
    3.6430   13.7480    6.2800 H   0  0  0  0  0  0  0  0  0  0  0  0
    1.5400   11.6530    8.3470 H   0  0  0  0  0  0  0  0  0  0  0  0
    3.5050    9.2980    6.6750 H   0  0  0  0  0  0  0  0  0  0  0  0
    2.8370    6.9880    6.1480 H   0  0  0  0  0  0  0  0  0  0  0  0
    0.4970    6.2850    6.4390 H   0  0  0  0  0  0  0  0  0  0  0  0
   -1.1820    7.8860    7.2590 H   0  0  0  0  0  0  0  0  0  0  0  0
   -0.5230   10.1960    7.7950 H   0  0  0  0  0  0  0  0  0  0  0  0
    6.9450   13.2880    9.1920 H   0  0  0  0  0  0  0  0  0  0  0  0
    7.0630   15.8420    8.7000 H   0  0  0  0  0  0  0  0  0  0  0  0
    6.2420   16.0370   10.2680 H   0  0  0  0  0  0  0  0  0  0  0  0
    8.8240   14.4660    9.8520 H   0  0  0  0  0  0  0  0  0  0  0  0
    8.3560   17.2500   11.0130 H   0  0  0  0  0  0  0  0  0  0  0  0
    9.9120   16.3860   10.9830 H   0  0  0  0  0  0  0  0  0  0  0  0
    9.1460   16.8930    9.4580 H   0  0  0  0  0  0  0  0  0  0  0  0
    7.2860   15.3580   12.3320 H   0  0  0  0  0  0  0  0  0  0  0  0
    7.5070   13.6850   11.7640 H   0  0  0  0  0  0  0  0  0  0  0  0
    8.9030   14.6160   12.3570 H   0  0  0  0  0  0  0  0  0  0  0  0
    4.0460   11.7000   12.0400 H   0  0  0  0  0  0  0  0  0  0  0  0
    5.4940   10.6540   13.7100 H   0  0  0  0  0  0  0  0  0  0  0  0
    6.1580   12.2460   14.1730 H   0  0  0  0  0  0  0  0  0  0  0  0
    4.0830   11.3440   15.6500 H   0  0  0  0  0  0  0  0  0  0  0  0
    2.3540   12.8230   15.2680 H   0  0  0  0  0  0  0  0  0  0  0  0
    2.3490   13.2720   12.6040 H   0  0  0  0  0  0  0  0  0  0  0  0
    2.7280   14.6780   13.6390 H   0  0  0  0  0  0  0  0  0  0  0  0
    5.1280   14.2370   13.4160 H   0  0  0  0  0  0  0  0  0  0  0  0
  1  2  2  0  0  0  0
  2  3  1  0  0  0  0
  3  4  1  0  0  0  0
  4 30  1  0  0  0  0
  4 31  1  0  0  0  0
  4  5  1  0  0  0  0
  5  6  1  0  0  0  0
  6 32  1  0  0  0  0
  6  7  1  0  0  0  0
  7  8  2  0  0  0  0
  8 33  1  0  0  0  0
  8  9  1  0  0  0  0
  9 34  1  0  0  0  0
  9 10  2  0  0  0  0
 10 35  1  0  0  0  0
 10 11  1  0  0  0  0
 11 36  1  0  0  0  0
 11 12  2  0  0  0  0
 12  7  1  0  0  0  0
 12 37  1  0  0  0  0
  5 13  2  0  0  0  0
  2 14  1  0  0  0  0
 14 38  1  0  0  0  0
 14 15  1  0  0  0  0
 15 39  1  0  0  0  0
 15 40  1  0  0  0  0
 15 16  1  0  0  0  0
 16 41  1  0  0  0  0
 16 17  1  0  0  0  0
 17 42  1  0  0  0  0
 17 43  1  0  0  0  0
 17 44  1  0  0  0  0
 16 18  1  0  0  0  0
 18 45  1  0  0  0  0
 18 46  1  0  0  0  0
 18 47  1  0  0  0  0
 14 19  1  0  0  0  0
 19 20  1  0  0  0  0
 20 21  1  0  0  0  0
 21 48  1  0  0  0  0
 21 22  1  0  0  0  0
 22 49  1  0  0  0  0
 22 50  1  0  0  0  0
 22 23  1  0  0  0  0
 23 51  1  0  0  0  0
 23 24  2  0  0  0  0
 24 52  1  0  0  0  0
 24 25  1  0  0  0  0
 25 53  1  0  0  0  0
 25 54  1  0  0  0  0
 25 26  1  0  0  0  0
 26 21  1  0  0  0  0
 26 55  1  0  0  0  0
 26 27  1  0  0  0  0
 27 19  1  0  0  0  0
 27 28  2  0  0  0  0
 20 29  2  0  0  0  0
M  END
>  <EXTREG>  (11)
11

>  <pIC50>  (11)
4.7773

>  <COMFA_1>  (11)
168.0000

>  <CoMFA_2__1>  (11)
4.3069

$$$$
15
  -MTS-   04202218243D 0   0.00000     0.00000     0

 57 59  0  0  0  0  0  0  0  0999 V2000
    0.4130   13.2990    4.6260 O   0  0  0  0  0  0  0  0  0  0  0  0
    1.3640   13.9350    5.0140 C   0  0  0  0  0  0  0  0  0  0  0  0
    1.5590   15.1880    4.5750 O   0  0  0  0  0  0  0  0  0  0  0  0
    0.6870   15.7430    3.5550 C   0  0  0  0  0  0  0  0  0  0  0  0
    0.9160   15.0230    2.2520 C   0  0  0  0  0  0  0  0  0  0  0  0
    0.5720   13.7260    2.1290 N   0  0  0  0  0  0  0  0  0  0  0  0
    0.8920   13.0230    0.9600 C   0  0  0  0  0  0  0  0  0  0  0  0
    2.1200   13.2240    0.3430 C   0  0  0  0  0  0  0  0  0  0  0  0
    2.4350   12.5320   -0.8100 C   0  0  0  0  0  0  0  0  0  0  0  0
    1.5240   11.6350   -1.3520 C   0  0  0  0  0  0  0  0  0  0  0  0
    1.8430   10.9340   -2.5190 N   0  0  0  0  0  0  0  0  0  0  0  0
    0.2960   11.4340   -0.7350 C   0  0  0  0  0  0  0  0  0  0  0  0
   -0.0170   12.1220    0.4200 C   0  0  0  0  0  0  0  0  0  0  0  0
    1.4100   15.6110    1.3130 O   0  0  0  0  0  0  0  0  0  0  0  0
    2.3290   13.3220    5.9970 C   0  0  0  0  0  0  0  0  0  0  0  0
    2.3890   14.1860    7.2590 C   0  0  0  0  0  0  0  0  0  0  0  0
    3.4180   13.6020    8.2280 C   0  0  0  0  0  0  0  0  0  0  0  0
    4.8000   13.6120    7.5710 C   0  0  0  0  0  0  0  0  0  0  0  0
    3.4540   14.4470    9.5030 C   0  0  0  0  0  0  0  0  0  0  0  0
    1.8770   11.9740    6.3500 N   0  0  0  0  0  0  0  0  0  0  0  0
    0.6570   11.7140    6.8880 C   0  0  0  0  0  0  0  0  0  0  0  0
    0.7070   10.2990    7.3770 C   0  0  0  0  0  0  0  0  0  0  0  0
   -0.5470    9.4580    7.2700 C   0  0  0  0  0  0  0  0  0  0  0  0
   -0.1330    8.0180    7.4920 C   0  0  0  0  0  0  0  0  0  0  0  0
    1.0870    7.5830    7.3900 C   0  0  0  0  0  0  0  0  0  0  0  0
    2.2730    8.4440    7.0100 C   0  0  0  0  0  0  0  0  0  0  0  0
    1.7190    9.6930    6.3560 C   0  0  0  0  0  0  0  0  0  0  0  0
    2.6350   10.8620    6.1650 C   0  0  0  0  0  0  0  0  0  0  0  0
    3.8170   10.8250    5.9010 O   0  0  0  0  0  0  0  0  0  0  0  0
   -0.2840   12.4750    6.9580 O   0  0  0  0  0  0  0  0  0  0  0  0
   -0.3520   15.6210    3.8600 H   0  0  0  0  0  0  0  0  0  0  0  0
    0.9060   16.8030    3.4280 H   0  0  0  0  0  0  0  0  0  0  0  0
    0.1030   13.2780    2.8510 H   0  0  0  0  0  0  0  0  0  0  0  0
    2.8280   13.9220    0.7650 H   0  0  0  0  0  0  0  0  0  0  0  0
    3.3900   12.6890   -1.2900 H   0  0  0  0  0  0  0  0  0  0  0  0
    2.7010   11.0740   -2.9500 H   0  0  0  0  0  0  0  0  0  0  0  0
    1.2070   10.3070   -2.8980 H   0  0  0  0  0  0  0  0  0  0  0  0
   -0.4120   10.7360   -1.1560 H   0  0  0  0  0  0  0  0  0  0  0  0
   -0.9710   11.9660    0.9000 H   0  0  0  0  0  0  0  0  0  0  0  0
    3.3200   13.2670    5.5470 H   0  0  0  0  0  0  0  0  0  0  0  0
    2.6780   15.2020    6.9900 H   0  0  0  0  0  0  0  0  0  0  0  0
    1.4090   14.2020    7.7350 H   0  0  0  0  0  0  0  0  0  0  0  0
    3.1420   12.5780    8.4780 H   0  0  0  0  0  0  0  0  0  0  0  0
    5.0760   14.6360    7.3210 H   0  0  0  0  0  0  0  0  0  0  0  0
    5.5330   13.1960    8.2620 H   0  0  0  0  0  0  0  0  0  0  0  0
    4.7740   13.0100    6.6630 H   0  0  0  0  0  0  0  0  0  0  0  0
    3.6470   15.4880    9.2450 H   0  0  0  0  0  0  0  0  0  0  0  0
    2.4950   14.3720   10.0160 H   0  0  0  0  0  0  0  0  0  0  0  0
    4.2450   14.0820   10.1590 H   0  0  0  0  0  0  0  0  0  0  0  0
    1.1020   10.2620    8.3920 H   0  0  0  0  0  0  0  0  0  0  0  0
   -1.2650    9.7600    8.0330 H   0  0  0  0  0  0  0  0  0  0  0  0
   -0.9870    9.5700    6.2790 H   0  0  0  0  0  0  0  0  0  0  0  0
   -0.9020    7.3060    7.7520 H   0  0  0  0  0  0  0  0  0  0  0  0
    1.2670    6.5370    7.5910 H   0  0  0  0  0  0  0  0  0  0  0  0
    2.8400    8.7110    7.9020 H   0  0  0  0  0  0  0  0  0  0  0  0
    2.9120    7.9080    6.3080 H   0  0  0  0  0  0  0  0  0  0  0  0
    1.2150    9.4400    5.4230 H   0  0  0  0  0  0  0  0  0  0  0  0
  1  2  2  0  0  0  0
  2  3  1  0  0  0  0
  3  4  1  0  0  0  0
  4 31  1  0  0  0  0
  4 32  1  0  0  0  0
  4  5  1  0  0  0  0
  5  6  1  0  0  0  0
  6 33  1  0  0  0  0
  6  7  1  0  0  0  0
  7  8  2  0  0  0  0
  8 34  1  0  0  0  0
  8  9  1  0  0  0  0
  9 35  1  0  0  0  0
  9 10  2  0  0  0  0
 10 11  1  0  0  0  0
 11 36  1  0  0  0  0
 11 37  1  0  0  0  0
 10 12  1  0  0  0  0
 12 38  1  0  0  0  0
 12 13  2  0  0  0  0
 13  7  1  0  0  0  0
 13 39  1  0  0  0  0
  5 14  2  0  0  0  0
  2 15  1  0  0  0  0
 15 40  1  0  0  0  0
 15 16  1  0  0  0  0
 16 41  1  0  0  0  0
 16 42  1  0  0  0  0
 16 17  1  0  0  0  0
 17 43  1  0  0  0  0
 17 18  1  0  0  0  0
 18 44  1  0  0  0  0
 18 45  1  0  0  0  0
 18 46  1  0  0  0  0
 17 19  1  0  0  0  0
 19 47  1  0  0  0  0
 19 48  1  0  0  0  0
 19 49  1  0  0  0  0
 15 20  1  0  0  0  0
 20 21  1  0  0  0  0
 21 22  1  0  0  0  0
 22 50  1  0  0  0  0
 22 23  1  0  0  0  0
 23 51  1  0  0  0  0
 23 52  1  0  0  0  0
 23 24  1  0  0  0  0
 24 53  1  0  0  0  0
 24 25  2  0  0  0  0
 25 54  1  0  0  0  0
 25 26  1  0  0  0  0
 26 55  1  0  0  0  0
 26 56  1  0  0  0  0
 26 27  1  0  0  0  0
 27 22  1  0  0  0  0
 27 57  1  0  0  0  0
 27 28  1  0  0  0  0
 28 20  1  0  0  0  0
 28 29  2  0  0  0  0
 21 30  2  0  0  0  0
M  END
>  <EXTREG>  (15)
15

>  <pIC50>  (15)
4.1221

>  <COMFA_1>  (15)
174.0000

>  <CoMFA_2__1>  (15)
3.8375

$$$$
18
  -MTS-   04202218243D 0   0.00000     0.00000     0

 30 31  0  0  0  0  0  0  0  0999 V2000
    2.5690   11.5530    5.4420 O   0  0  0  0  0  0  0  0  0  0  0  0
    2.3360   11.8400    6.5990 C   0  0  0  0  0  0  0  0  0  0  0  0
    2.2020   13.1320    6.9600 N   0  0  0  0  0  0  0  0  0  0  0  0
    2.5720   14.2310    6.2210 C   0  0  0  0  0  0  0  0  0  0  0  0
    2.2590   15.3140    6.9530 C   0  0  0  0  0  0  0  0  0  0  0  0
    1.7130   14.9000    8.1070 N   0  0  0  0  0  0  0  0  0  0  0  0
    1.6670   13.5980    8.1230 C   0  0  0  0  0  0  0  0  0  0  0  0
    2.2080   10.8660    7.5220 N   0  0  0  0  0  0  0  0  0  0  0  0
    2.3490    9.4620    7.1290 C   0  0  0  0  0  0  0  0  0  0  0  0
    0.9700    8.8810    6.8110 C   0  0  0  0  0  0  0  0  0  0  0  0
    1.1110    7.5250    6.3820 O   0  0  0  0  0  0  0  0  0  0  0  0
   -0.0710    7.1660    5.8170 C   0  0  0  0  0  0  0  0  0  0  0  0
   -0.0980    6.2180    4.8050 C   0  0  0  0  0  0  0  0  0  0  0  0
   -1.3040    5.8540    4.2320 C   0  0  0  0  0  0  0  0  0  0  0  0
   -1.3320    4.9310    3.2460 F   0  0  0  0  0  0  0  0  0  0  0  0
   -2.4820    6.4350    4.6700 C   0  0  0  0  0  0  0  0  0  0  0  0
   -2.4560    7.3800    5.6800 C   0  0  0  0  0  0  0  0  0  0  0  0
   -1.2540    7.7420    6.2580 C   0  0  0  0  0  0  0  0  0  0  0  0
    3.0270   14.2240    5.2420 H   0  0  0  0  0  0  0  0  0  0  0  0
    2.4200   16.3420    6.6620 H   0  0  0  0  0  0  0  0  0  0  0  0
    1.2770   12.9900    8.9270 H   0  0  0  0  0  0  0  0  0  0  0  0
    2.0230   11.0950    8.4460 H   0  0  0  0  0  0  0  0  0  0  0  0
    2.9850    9.3930    6.2470 H   0  0  0  0  0  0  0  0  0  0  0  0
    2.8000    8.8990    7.9470 H   0  0  0  0  0  0  0  0  0  0  0  0
    0.3450    8.9160    7.7030 H   0  0  0  0  0  0  0  0  0  0  0  0
    0.5030    9.4650    6.0180 H   0  0  0  0  0  0  0  0  0  0  0  0
    0.8210    5.7660    4.4630 H   0  0  0  0  0  0  0  0  0  0  0  0
   -3.4230    6.1500    4.2230 H   0  0  0  0  0  0  0  0  0  0  0  0
   -3.3760    7.8320    6.0190 H   0  0  0  0  0  0  0  0  0  0  0  0
   -1.2350    8.4800    7.0460 H   0  0  0  0  0  0  0  0  0  0  0  0
  1  2  2  0  0  0  0
  2  3  1  0  0  0  0
  3  4  1  0  0  0  0
  4 19  1  0  0  0  0
  4  5  2  0  0  0  0
  5 20  1  0  0  0  0
  5  6  1  0  0  0  0
  6  7  2  0  0  0  0
  7  3  1  0  0  0  0
  7 21  1  0  0  0  0
  2  8  1  0  0  0  0
  8 22  1  0  0  0  0
  8  9  1  0  0  0  0
  9 23  1  0  0  0  0
  9 24  1  0  0  0  0
  9 10  1  0  0  0  0
 10 25  1  0  0  0  0
 10 26  1  0  0  0  0
 10 11  1  0  0  0  0
 11 12  1  0  0  0  0
 12 13  2  0  0  0  0
 13 27  1  0  0  0  0
 13 14  1  0  0  0  0
 14 15  1  0  0  0  0
 14 16  2  0  0  0  0
 16 28  1  0  0  0  0
 16 17  1  0  0  0  0
 17 29  1  0  0  0  0
 17 18  2  0  0  0  0
 18 12  1  0  0  0  0
 18 30  1  0  0  0  0
M  END
>  <EXTREG>  (18)
18

>  <pIC50>  (18)
5.7696

>  <COMFA_1>  (18)
100.0000

>  <CoMFA_2__1>  (18)
6.1868

$$$$
24
  -MTS-   04202218243D 0   0.00000     0.00000     0

 33 34  0  0  0  0  0  0  0  0999 V2000
    6.3590   12.9230    9.9270 O   0  0  0  0  0  0  0  0  0  0  0  0
    5.2760   12.7420   10.4450 C   0  0  0  0  0  0  0  0  0  0  0  0
    5.1990   12.4170   11.7510 N   0  0  0  0  0  0  0  0  0  0  0  0
    4.0540   12.3300   12.5070 C   0  0  0  0  0  0  0  0  0  0  0  0
    4.4340   11.9800   13.7490 C   0  0  0  0  0  0  0  0  0  0  0  0
    5.7710   11.8530   13.7610 N   0  0  0  0  0  0  0  0  0  0  0  0
    6.2420   12.1070   12.5720 C   0  0  0  0  0  0  0  0  0  0  0  0
    4.1500   12.8700    9.7160 N   0  0  0  0  0  0  0  0  0  0  0  0
    4.2330   13.2290    8.2980 C   0  0  0  0  0  0  0  0  0  0  0  0
    4.0400   11.9750    7.4420 C   0  0  0  0  0  0  0  0  0  0  0  0
    2.7290   11.9840    6.8730 O   0  0  0  0  0  0  0  0  0  0  0  0
    2.3210   10.6890    6.8080 C   0  0  0  0  0  0  0  0  0  0  0  0
    0.9690   10.3830    6.8740 C   0  0  0  0  0  0  0  0  0  0  0  0
    0.5570    9.0660    6.8070 C   0  0  0  0  0  0  0  0  0  0  0  0
   -0.9110    8.7330    6.8790 C   0  0  0  0  0  0  0  0  0  0  0  0
   -1.1630    7.5760    6.1330 F   0  0  0  0  0  0  0  0  0  0  0  0
   -1.2760    8.5180    8.2120 F   0  0  0  0  0  0  0  0  0  0  0  0
   -1.6570    9.7950    6.3570 F   0  0  0  0  0  0  0  0  0  0  0  0
    1.4890    8.0540    6.6750 C   0  0  0  0  0  0  0  0  0  0  0  0
    2.8370    8.3570    6.6090 C   0  0  0  0  0  0  0  0  0  0  0  0
    3.2540    9.6720    6.6690 C   0  0  0  0  0  0  0  0  0  0  0  0
    3.0450   12.5100   12.1690 H   0  0  0  0  0  0  0  0  0  0  0  0
    3.7770   11.8260   14.5920 H   0  0  0  0  0  0  0  0  0  0  0  0
    7.2830   12.0820   12.2880 H   0  0  0  0  0  0  0  0  0  0  0  0
    3.2850   12.7250   10.1300 H   0  0  0  0  0  0  0  0  0  0  0  0
    3.4540   13.9540    8.0600 H   0  0  0  0  0  0  0  0  0  0  0  0
    5.2100   13.6640    8.0890 H   0  0  0  0  0  0  0  0  0  0  0  0
    4.7820   11.9620    6.6440 H   0  0  0  0  0  0  0  0  0  0  0  0
    4.1600   11.0890    8.0650 H   0  0  0  0  0  0  0  0  0  0  0  0
    0.2410   11.1730    6.9780 H   0  0  0  0  0  0  0  0  0  0  0  0
    1.1650    7.0250    6.6230 H   0  0  0  0  0  0  0  0  0  0  0  0
    3.5630    7.5640    6.5060 H   0  0  0  0  0  0  0  0  0  0  0  0
    4.3070    9.9080    6.6170 H   0  0  0  0  0  0  0  0  0  0  0  0
  1  2  2  0  0  0  0
  2  3  1  0  0  0  0
  3  4  1  0  0  0  0
  4 22  1  0  0  0  0
  4  5  2  0  0  0  0
  5 23  1  0  0  0  0
  5  6  1  0  0  0  0
  6  7  2  0  0  0  0
  7  3  1  0  0  0  0
  7 24  1  0  0  0  0
  2  8  1  0  0  0  0
  8 25  1  0  0  0  0
  8  9  1  0  0  0  0
  9 26  1  0  0  0  0
  9 27  1  0  0  0  0
  9 10  1  0  0  0  0
 10 28  1  0  0  0  0
 10 29  1  0  0  0  0
 10 11  1  0  0  0  0
 11 12  1  0  0  0  0
 12 13  2  0  0  0  0
 13 30  1  0  0  0  0
 13 14  1  0  0  0  0
 14 15  1  0  0  0  0
 15 16  1  0  0  0  0
 15 17  1  0  0  0  0
 15 18  1  0  0  0  0
 14 19  2  0  0  0  0
 19 31  1  0  0  0  0
 19 20  1  0  0  0  0
 20 32  1  0  0  0  0
 20 21  2  0  0  0  0
 21 12  1  0  0  0  0
 21 33  1  0  0  0  0
M  END
>  <EXTREG>  (24)
24

>  <pIC50>  (24)
6.3010

>  <COMFA_1>  (24)
112.0000

>  <CoMFA_2__1>  (24)
6.1216

$$$$
44
  -MTS-   04202218243D 0   0.00000     0.00000     0

 45 48  0  0  0  0  0  0  0  0999 V2000
    2.7960    7.7450    6.5400 Br  0  0  0  0  0  0  0  0  0  0  0  0
    1.1570    8.6850    6.6260 C   0  0  0  0  0  0  0  0  0  0  0  0
    1.1360    9.9970    7.0060 C   0  0  0  0  0  0  0  0  0  0  0  0
    2.3010   10.6230    7.3210 O   0  0  0  0  0  0  0  0  0  0  0  0
    2.1320   12.0020    6.9880 C   0  0  0  0  0  0  0  0  0  0  0  0
    3.3130   12.7900    7.4950 C   0  0  0  0  0  0  0  0  0  0  0  0
    3.8500   12.5000    8.6970 N   0  0  0  0  0  0  0  0  0  0  0  0
    4.9980   13.2650    9.1900 C   0  0  0  0  0  0  0  0  0  0  0  0
    5.8460   12.3800   10.1050 C   0  0  0  0  0  0  0  0  0  0  0  0
    5.3970   12.5570   11.5320 C   0  0  0  0  0  0  0  0  0  0  0  0
    6.1340   13.0370   12.4920 N   0  0  0  0  0  0  0  0  0  0  0  0
    5.4200   13.0600   13.6470 C   0  0  0  0  0  0  0  0  0  0  0  0
    5.7130   13.4660   14.9520 C   0  0  0  0  0  0  0  0  0  0  0  0
    4.7600   13.3640   15.9260 C   0  0  0  0  0  0  0  0  0  0  0  0
    3.5010   12.8590   15.6340 C   0  0  0  0  0  0  0  0  0  0  0  0
    3.1900   12.4520   14.3540 C   0  0  0  0  0  0  0  0  0  0  0  0
    4.1450   12.5490   13.3510 C   0  0  0  0  0  0  0  0  0  0  0  0
    4.1600   12.2450   12.0040 N   0  0  0  0  0  0  0  0  0  0  0  0
    3.7800   13.6840    6.8220 O   0  0  0  0  0  0  0  0  0  0  0  0
   -0.0680   10.7050    7.0750 C   0  0  0  0  0  0  0  0  0  0  0  0
   -1.2490   10.1070    6.7660 C   0  0  0  0  0  0  0  0  0  0  0  0
   -1.2660    8.7570    6.3710 C   0  0  0  0  0  0  0  0  0  0  0  0
   -0.0460    8.0390    6.2940 C   0  0  0  0  0  0  0  0  0  0  0  0
   -0.0650    6.6900    5.8990 C   0  0  0  0  0  0  0  0  0  0  0  0
   -1.2490    6.0930    5.5960 C   0  0  0  0  0  0  0  0  0  0  0  0
   -2.4490    6.8000    5.6720 C   0  0  0  0  0  0  0  0  0  0  0  0
   -2.4690    8.1080    6.0450 C   0  0  0  0  0  0  0  0  0  0  0  0
    2.0630   12.1080    5.9050 H   0  0  0  0  0  0  0  0  0  0  0  0
    1.2190   12.3780    7.4490 H   0  0  0  0  0  0  0  0  0  0  0  0
    3.4770   11.7850    9.2350 H   0  0  0  0  0  0  0  0  0  0  0  0
    5.6010   13.5990    8.3450 H   0  0  0  0  0  0  0  0  0  0  0  0
    4.6440   14.1320    9.7480 H   0  0  0  0  0  0  0  0  0  0  0  0
    5.7270   11.3370    9.8130 H   0  0  0  0  0  0  0  0  0  0  0  0
    6.8940   12.6650   10.0160 H   0  0  0  0  0  0  0  0  0  0  0  0
    6.6900   13.8590   15.1900 H   0  0  0  0  0  0  0  0  0  0  0  0
    4.9900   13.6790   16.9330 H   0  0  0  0  0  0  0  0  0  0  0  0
    2.7590   12.7850   16.4150 H   0  0  0  0  0  0  0  0  0  0  0  0
    2.2090   12.0600   14.1320 H   0  0  0  0  0  0  0  0  0  0  0  0
    3.4250   11.8730   11.4910 H   0  0  0  0  0  0  0  0  0  0  0  0
   -0.0590   11.7420    7.3780 H   0  0  0  0  0  0  0  0  0  0  0  0
   -2.1710   10.6660    6.8240 H   0  0  0  0  0  0  0  0  0  0  0  0
    0.8570    6.1300    5.8360 H   0  0  0  0  0  0  0  0  0  0  0  0
   -1.2610    5.0570    5.2930 H   0  0  0  0  0  0  0  0  0  0  0  0
   -3.3750    6.3030    5.4260 H   0  0  0  0  0  0  0  0  0  0  0  0
   -3.4060    8.6430    6.0990 H   0  0  0  0  0  0  0  0  0  0  0  0
  1  2  1  0  0  0  0
  2  3  2  0  0  0  0
  3  4  1  0  0  0  0
  4  5  1  0  0  0  0
  5 28  1  0  0  0  0
  5 29  1  0  0  0  0
  5  6  1  0  0  0  0
  6  7  1  0  0  0  0
  7 30  1  0  0  0  0
  7  8  1  0  0  0  0
  8 31  1  0  0  0  0
  8 32  1  0  0  0  0
  8  9  1  0  0  0  0
  9 33  1  0  0  0  0
  9 34  1  0  0  0  0
  9 10  1  0  0  0  0
 10 11  2  0  0  0  0
 11 12  1  0  0  0  0
 12 13  2  0  0  0  0
 13 35  1  0  0  0  0
 13 14  1  0  0  0  0
 14 36  1  0  0  0  0
 14 15  2  0  0  0  0
 15 37  1  0  0  0  0
 15 16  1  0  0  0  0
 16 38  1  0  0  0  0
 16 17  2  0  0  0  0
 17 12  1  0  0  0  0
 17 18  1  0  0  0  0
 18 10  1  0  0  0  0
 18 39  1  0  0  0  0
  6 19  2  0  0  0  0
  3 20  1  0  0  0  0
 20 40  1  0  0  0  0
 20 21  2  0  0  0  0
 21 41  1  0  0  0  0
 21 22  1  0  0  0  0
 22 23  2  0  0  0  0
 23  2  1  0  0  0  0
 23 24  1  0  0  0  0
 24 42  1  0  0  0  0
 24 25  2  0  0  0  0
 25 43  1  0  0  0  0
 25 26  1  0  0  0  0
 26 44  1  0  0  0  0
 26 27  2  0  0  0  0
 27 22  1  0  0  0  0
 27 45  1  0  0  0  0
M  END
>  <EXTREG>  (44)
44

>  <pIC50>  (44)
6.6778

>  <COMFA_1>  (44)
154.0000

>  <CoMFA_2__1>  (44)
6.6480

$$$$
37
  -MTS-   04202218243D 0   0.00000     0.00000     0

 32 33  0  0  0  0  0  0  0  0999 V2000
   -1.0000    4.4920    3.1310 Cl  0  0  0  0  0  0  0  0  0  0  0  0
   -1.6030    5.7990    4.1030 C   0  0  0  0  0  0  0  0  0  0  0  0
   -2.8700    6.3050    3.8700 C   0  0  0  0  0  0  0  0  0  0  0  0
   -3.3580    7.3460    4.6400 C   0  0  0  0  0  0  0  0  0  0  0  0
   -2.5840    7.8860    5.6460 C   0  0  0  0  0  0  0  0  0  0  0  0
   -1.3050    7.3810    5.8870 C   0  0  0  0  0  0  0  0  0  0  0  0
   -0.4700    7.9550    6.9620 C   0  0  0  0  0  0  0  0  0  0  0  0
    0.8440    7.6660    7.0220 O   0  0  0  0  0  0  0  0  0  0  0  0
    1.7710    8.6180    7.6080 C   0  0  0  0  0  0  0  0  0  0  0  0
    1.5820    9.9860    6.9490 C   0  0  0  0  0  0  0  0  0  0  0  0
    2.4400   10.9700    7.6120 N   0  0  0  0  0  0  0  0  0  0  0  0
    3.1470   11.8520    6.8780 C   0  0  0  0  0  0  0  0  0  0  0  0
    3.9370   12.7570    7.4890 N   0  0  0  0  0  0  0  0  0  0  0  0
    4.3950   12.7010    8.7710 C   0  0  0  0  0  0  0  0  0  0  0  0
    5.1270   13.7560    8.9950 N   0  0  0  0  0  0  0  0  0  0  0  0
    5.1680   14.5150    7.8890 C   0  0  0  0  0  0  0  0  0  0  0  0
    4.4380   13.9120    6.9350 C   0  0  0  0  0  0  0  0  0  0  0  0
    3.0730   11.8290    5.6650 O   0  0  0  0  0  0  0  0  0  0  0  0
   -0.9700    8.6880    7.7920 O   0  0  0  0  0  0  0  0  0  0  0  0
   -0.8200    6.3270    5.1100 C   0  0  0  0  0  0  0  0  0  0  0  0
   -3.4810    5.8860    3.0840 H   0  0  0  0  0  0  0  0  0  0  0  0
   -4.3480    7.7360    4.4540 H   0  0  0  0  0  0  0  0  0  0  0  0
   -2.9660    8.6980    6.2460 H   0  0  0  0  0  0  0  0  0  0  0  0
    1.5780    8.7000    8.6780 H   0  0  0  0  0  0  0  0  0  0  0  0
    2.7930    8.2760    7.4480 H   0  0  0  0  0  0  0  0  0  0  0  0
    1.8510    9.9210    5.8940 H   0  0  0  0  0  0  0  0  0  0  0  0
    0.5400   10.2920    7.0400 H   0  0  0  0  0  0  0  0  0  0  0  0
    2.4990   10.9880    8.5810 H   0  0  0  0  0  0  0  0  0  0  0  0
    4.1860   11.9160    9.4820 H   0  0  0  0  0  0  0  0  0  0  0  0
    5.7000   15.4490    7.7820 H   0  0  0  0  0  0  0  0  0  0  0  0
    4.2730   14.2680    5.9290 H   0  0  0  0  0  0  0  0  0  0  0  0
    0.1690    5.9310    5.2910 H   0  0  0  0  0  0  0  0  0  0  0  0
  1  2  1  0  0  0  0
  2  3  2  0  0  0  0
  3 21  1  0  0  0  0
  3  4  1  0  0  0  0
  4 22  1  0  0  0  0
  4  5  2  0  0  0  0
  5 23  1  0  0  0  0
  5  6  1  0  0  0  0
  6  7  1  0  0  0  0
  7  8  1  0  0  0  0
  8  9  1  0  0  0  0
  9 24  1  0  0  0  0
  9 25  1  0  0  0  0
  9 10  1  0  0  0  0
 10 26  1  0  0  0  0
 10 27  1  0  0  0  0
 10 11  1  0  0  0  0
 11 28  1  0  0  0  0
 11 12  1  0  0  0  0
 12 13  1  0  0  0  0
 13 14  1  0  0  0  0
 14 29  1  0  0  0  0
 14 15  2  0  0  0  0
 15 16  1  0  0  0  0
 16 30  1  0  0  0  0
 16 17  2  0  0  0  0
 17 13  1  0  0  0  0
 17 31  1  0  0  0  0
 12 18  2  0  0  0  0
  7 19  2  0  0  0  0
  6 20  2  0  0  0  0
 20  2  1  0  0  0  0
 20 32  1  0  0  0  0
M  END
>  <EXTREG>  (37)
37

>  <pIC50>  (37)
6.1549

>  <COMFA_1>  (37)
108.0000

>  <CoMFA_2__1>  (37)
5.9372

$$$$
49
  -MTS-   04202218243D 0   0.00000     0.00000     0

 37 39  0  0  0  0  0  0  0  0999 V2000
    1.2170   12.2610   -0.9780 F   0  0  0  0  0  0  0  0  0  0  0  0
    1.2820   12.7550    0.2780 C   0  0  0  0  0  0  0  0  0  0  0  0
    1.9580   13.9380    0.5210 C   0  0  0  0  0  0  0  0  0  0  0  0
    2.0260   14.4450    1.8040 C   0  0  0  0  0  0  0  0  0  0  0  0
    1.4160   13.7660    2.8500 C   0  0  0  0  0  0  0  0  0  0  0  0
    0.7330   12.5820    2.6030 C   0  0  0  0  0  0  0  0  0  0  0  0
    0.6680   12.0790    1.3190 C   0  0  0  0  0  0  0  0  0  0  0  0
    1.4830   14.2780    4.1510 N   0  0  0  0  0  0  0  0  0  0  0  0
    2.0350   13.5180    5.1650 C   0  0  0  0  0  0  0  0  0  0  0  0
    2.5460   14.1120    6.2380 N   0  0  0  0  0  0  0  0  0  0  0  0
    3.0770   13.3810    7.2130 C   0  0  0  0  0  0  0  0  0  0  0  0
    3.6280   14.0200    8.3700 C   0  0  0  0  0  0  0  0  0  0  0  0
    4.0650   14.5280    9.2870 N   0  0  0  0  0  0  0  0  0  0  0  0
    3.0950   12.0550    7.1150 N   0  0  0  0  0  0  0  0  0  0  0  0
    2.5830   11.4610    6.0410 C   0  0  0  0  0  0  0  0  0  0  0  0
    2.6020   10.0850    5.9380 N   0  0  0  0  0  0  0  0  0  0  0  0
    2.1610    9.2600    7.0660 C   0  0  0  0  0  0  0  0  0  0  0  0
    0.6930    9.5720    7.4040 C   0  0  0  0  0  0  0  0  0  0  0  0
   -0.0920    8.2570    7.2140 C   0  0  0  0  0  0  0  0  0  0  0  0
    0.9780    7.1490    7.3760 C   0  0  0  0  0  0  0  0  0  0  0  0
    2.2170    7.7670    6.6820 C   0  0  0  0  0  0  0  0  0  0  0  0
    2.0480   12.1920    5.0690 N   0  0  0  0  0  0  0  0  0  0  0  0
    2.4330   14.4660   -0.2930 H   0  0  0  0  0  0  0  0  0  0  0  0
    2.5540   15.3680    1.9930 H   0  0  0  0  0  0  0  0  0  0  0  0
    0.2550   12.0550    3.4150 H   0  0  0  0  0  0  0  0  0  0  0  0
    0.1380   11.1590    1.1260 H   0  0  0  0  0  0  0  0  0  0  0  0
    1.1430   15.1660    4.3410 H   0  0  0  0  0  0  0  0  0  0  0  0
    2.9080    9.6640    5.1190 H   0  0  0  0  0  0  0  0  0  0  0  0
    2.7920    9.4470    7.9340 H   0  0  0  0  0  0  0  0  0  0  0  0
    0.6110    9.9100    8.4370 H   0  0  0  0  0  0  0  0  0  0  0  0
    0.3080   10.3370    6.7290 H   0  0  0  0  0  0  0  0  0  0  0  0
   -0.8620    8.1590    7.9790 H   0  0  0  0  0  0  0  0  0  0  0  0
   -0.5340    8.2170    6.2180 H   0  0  0  0  0  0  0  0  0  0  0  0
    1.1800    6.9590    8.4300 H   0  0  0  0  0  0  0  0  0  0  0  0
    0.6680    6.2350    6.8700 H   0  0  0  0  0  0  0  0  0  0  0  0
    2.1480    7.6480    5.6010 H   0  0  0  0  0  0  0  0  0  0  0  0
    3.1330    7.3110    7.0590 H   0  0  0  0  0  0  0  0  0  0  0  0
  1  2  1  0  0  0  0
  2  3  2  0  0  0  0
  3 23  1  0  0  0  0
  3  4  1  0  0  0  0
  4 24  1  0  0  0  0
  4  5  2  0  0  0  0
  5  6  1  0  0  0  0
  6 25  1  0  0  0  0
  6  7  2  0  0  0  0
  7  2  1  0  0  0  0
  7 26  1  0  0  0  0
  5  8  1  0  0  0  0
  8 27  1  0  0  0  0
  8  9  1  0  0  0  0
  9 10  2  0  0  0  0
 10 11  1  0  0  0  0
 11 12  1  0  0  0  0
 12 13  3  0  0  0  0
 11 14  2  0  0  0  0
 14 15  1  0  0  0  0
 15 16  1  0  0  0  0
 16 28  1  0  0  0  0
 16 17  1  0  0  0  0
 17 29  1  0  0  0  0
 17 18  1  0  0  0  0
 18 30  1  0  0  0  0
 18 31  1  0  0  0  0
 18 19  1  0  0  0  0
 19 32  1  0  0  0  0
 19 33  1  0  0  0  0
 19 20  1  0  0  0  0
 20 34  1  0  0  0  0
 20 35  1  0  0  0  0
 20 21  1  0  0  0  0
 21 17  1  0  0  0  0
 21 36  1  0  0  0  0
 21 37  1  0  0  0  0
 15 22  2  0  0  0  0
 22  9  1  0  0  0  0
M  END
>  <EXTREG>  (49)
49

>  <pIC50>  (49)
7.5229

>  <COMFA_1>  (49)
126.0000

>  <CoMFA_2__1>  (49)
7.5045

$$$$
